<?xml version="1.0" encoding="UTF-8"?>

<!-- generated on 12/10/19 13:59:15 by Eclipse SUMO netedit Version 1.3.1
<configuration xmlns:xsi="http://www.w3.org/2001/XMLSchema-instance" xsi:noNamespaceSchemaLocation="http://sumo.dlr.de/xsd/netconvertConfiguration.xsd">

    <input>
        <sumo-net-file value="C:\Owncloud\Projects\CAVIMAS\Simulations\CS2\scenario_0\network\N7_network.net.xml"/>
    </input>

    <output>
        <output-file value="C:\Owncloud\Projects\CAVIMAS\Simulations\CS2\scenario_0\network\N7_network.net.xml"/>
        <output.street-names value="true"/>
    </output>

    <processing>
        <geometry.max-grade.fix value="false"/>
        <offset.disable-normalization value="true"/>
        <opposites.guess.fix-lengths value="true"/>
        <lefthand value="true"/>
    </processing>

    <junctions>
        <no-turnarounds value="true"/>
        <junctions.corner-detail value="5"/>
        <junctions.limit-turn-speed value="5.5"/>
        <rectangular-lane-cut value="false"/>
    </junctions>

    <pedestrian>
        <walkingareas value="false"/>
    </pedestrian>

</configuration>
-->

<net version="1.3" junctionCornerDetail="5" lefthand="true" limitTurnSpeed="5.50" xmlns:xsi="http://www.w3.org/2001/XMLSchema-instance" xsi:noNamespaceSchemaLocation="http://sumo.dlr.de/xsd/net_file.xsd">

    <location netOffset="-654649.62,-5900009.14" convBoundary="699.47,889.59,15960.33,7745.89" origBoundary="-6.680210,53.226378,-6.412477,53.316376" projParameter="+proj=utm +zone=29 +ellps=WGS84 +datum=WGS84 +units=m +no_defs"/>

    <type id="highway.bridleway" priority="1" numLanes="1" speed="2.78" allow="pedestrian" oneway="1" width="2.00"/>
    <type id="highway.bus_guideway" priority="1" numLanes="1" speed="27.78" allow="bus" oneway="1"/>
    <type id="highway.cycleway" priority="1" numLanes="1" speed="8.33" allow="bicycle" oneway="0" width="1.00"/>
    <type id="highway.footway" priority="1" numLanes="1" speed="2.78" allow="pedestrian" oneway="1" width="2.00"/>
    <type id="highway.ford" priority="1" numLanes="1" speed="2.78" allow="army" oneway="0"/>
    <type id="highway.living_street" priority="2" numLanes="1" speed="2.78" disallow="tram rail_urban rail rail_electric rail_fast ship" oneway="0"/>
    <type id="highway.motorway" priority="14" numLanes="2" speed="39.44" allow="private emergency authority army vip passenger hov taxi bus coach delivery truck trailer motorcycle evehicle custom1 custom2" oneway="1"/>
    <type id="highway.motorway_link" priority="9" numLanes="1" speed="22.22" allow="private emergency authority army vip passenger hov taxi bus coach delivery truck trailer motorcycle evehicle custom1 custom2" oneway="1"/>
    <type id="highway.path" priority="1" numLanes="1" speed="2.78" allow="pedestrian bicycle" oneway="1" width="2.00"/>
    <type id="highway.pedestrian" priority="1" numLanes="1" speed="2.78" allow="pedestrian" oneway="1" width="2.00"/>
    <type id="highway.primary" priority="12" numLanes="2" speed="27.78" disallow="tram rail_urban rail rail_electric rail_fast ship" oneway="0"/>
    <type id="highway.primary_link" priority="7" numLanes="1" speed="22.22" disallow="tram rail_urban rail rail_electric rail_fast ship" oneway="0"/>
    <type id="highway.raceway" priority="15" numLanes="2" speed="83.33" allow="vip" oneway="0"/>
    <type id="highway.residential" priority="3" numLanes="1" speed="13.89" disallow="tram rail_urban rail rail_electric rail_fast ship" oneway="0"/>
    <type id="highway.secondary" priority="11" numLanes="2" speed="27.78" disallow="tram rail_urban rail rail_electric rail_fast ship" oneway="0"/>
    <type id="highway.secondary_link" priority="6" numLanes="1" speed="22.22" disallow="tram rail_urban rail rail_electric rail_fast ship" oneway="0"/>
    <type id="highway.service" priority="1" numLanes="1" speed="5.56" allow="pedestrian delivery bicycle" oneway="0"/>
    <type id="highway.stairs" priority="1" numLanes="1" speed="1.39" allow="pedestrian" oneway="1" width="2.00"/>
    <type id="highway.step" priority="1" numLanes="1" speed="1.39" allow="pedestrian" oneway="1" width="2.00"/>
    <type id="highway.steps" priority="1" numLanes="1" speed="1.39" allow="pedestrian" oneway="1" width="2.00"/>
    <type id="highway.tertiary" priority="10" numLanes="1" speed="22.22" disallow="tram rail_urban rail rail_electric rail_fast ship" oneway="0"/>
    <type id="highway.tertiary_link" priority="5" numLanes="1" speed="22.22" disallow="tram rail_urban rail rail_electric rail_fast ship" oneway="0"/>
    <type id="highway.track" priority="1" numLanes="1" speed="5.56" disallow="tram rail_urban rail rail_electric rail_fast ship" oneway="0"/>
    <type id="highway.trunk" priority="13" numLanes="2" speed="27.78" disallow="pedestrian bicycle tram rail_urban rail rail_electric rail_fast ship" oneway="0"/>
    <type id="highway.trunk_link" priority="8" numLanes="1" speed="22.22" disallow="pedestrian bicycle tram rail_urban rail rail_electric rail_fast ship" oneway="0"/>
    <type id="highway.unclassified" priority="4" numLanes="1" speed="13.89" disallow="tram rail_urban rail rail_electric rail_fast ship" oneway="0"/>
    <type id="highway.unsurfaced" priority="1" numLanes="1" speed="8.33" disallow="tram rail_urban rail rail_electric rail_fast ship" oneway="0"/>
    <type id="railway.highspeed" priority="21" numLanes="1" speed="69.44" allow="rail_fast" oneway="1"/>
    <type id="railway.light_rail" priority="19" numLanes="1" speed="27.78" allow="rail_urban" oneway="1"/>
    <type id="railway.preserved" priority="16" numLanes="1" speed="27.78" allow="rail" oneway="1"/>
    <type id="railway.rail" priority="20" numLanes="1" speed="44.44" allow="rail" oneway="1"/>
    <type id="railway.subway" priority="18" numLanes="1" speed="27.78" allow="rail_urban" oneway="1"/>
    <type id="railway.tram" priority="17" numLanes="1" speed="13.89" allow="tram" oneway="1"/>

    <edge id=":1003605669_0" function="internal">
        <lane id=":1003605669_0_0" index="0" disallow="pedestrian bicycle tram rail_urban rail rail_electric rail_fast ship" speed="16.62" length="8.63" shape="12873.56,6285.84 12875.87,6286.90 12877.39,6287.80 12878.70,6288.98 12880.41,6290.88"/>
    </edge>
    <edge id=":1003605669_1" function="internal">
        <lane id=":1003605669_1_0" index="0" disallow="pedestrian bicycle tram rail_urban rail rail_electric rail_fast ship" speed="27.78" length="8.73" shape="12874.85,6282.92 12882.83,6286.45"/>
        <lane id=":1003605669_1_1" index="1" disallow="pedestrian bicycle tram rail_urban rail rail_electric rail_fast ship" speed="27.78" length="8.73" shape="12876.14,6279.99 12884.12,6283.52"/>
        <lane id=":1003605669_1_2" index="2" disallow="pedestrian bicycle tram rail_urban rail rail_electric rail_fast ship" speed="27.78" length="8.73" shape="12877.43,6277.06 12885.42,6280.59"/>
    </edge>
    <edge id=":1003605767_0" function="internal">
        <lane id=":1003605767_0_0" index="0" disallow="pedestrian bicycle tram rail_urban rail rail_electric rail_fast ship" speed="6.60" length="7.19" shape="12904.23,6316.97 12903.56,6315.19 12903.49,6313.50 12904.04,6311.90 12905.19,6310.38"/>
    </edge>
    <edge id=":1003605767_1" function="internal">
        <lane id=":1003605767_1_0" index="0" disallow="tram rail_urban rail rail_electric rail_fast ship" speed="25.00" length="13.68" shape="12894.35,6306.80 12896.51,6309.60 12898.23,6312.40 12899.78,6315.32 12901.41,6318.48"/>
    </edge>
    <edge id=":1003605848_0" function="internal">
        <lane id=":1003605848_0_0" index="0" disallow="pedestrian bicycle tram rail_urban rail rail_electric rail_fast ship" speed="25.00" length="8.35" shape="12915.56,6305.55 12917.99,6305.98 12919.65,6306.37 12921.25,6306.93 12923.54,6307.88"/>
    </edge>
    <edge id=":1003605848_1" function="internal">
        <lane id=":1003605848_1_0" index="0" disallow="pedestrian bicycle tram rail_urban rail rail_electric rail_fast ship" speed="27.78" length="8.25" shape="12917.15,6301.63 12924.78,6304.93"/>
        <lane id=":1003605848_1_1" index="1" disallow="pedestrian bicycle tram rail_urban rail rail_electric rail_fast ship" speed="27.78" length="8.25" shape="12918.45,6298.71 12926.02,6301.98"/>
        <lane id=":1003605848_1_2" index="2" disallow="pedestrian bicycle tram rail_urban rail rail_electric rail_fast ship" speed="27.78" length="8.25" shape="12919.74,6295.78 12927.26,6299.03"/>
    </edge>
    <edge id=":123961229#1-AddedOffRampNode_0" function="internal">
        <lane id=":123961229#1-AddedOffRampNode_0_0" index="0" disallow="pedestrian bicycle tram rail_urban rail rail_electric rail_fast ship" speed="27.78" length="8.20" shape="11808.43,5910.71 11810.68,5911.84 11811.87,5913.30 11813.07,5914.76 11815.31,5915.89"/>
        <lane id=":123961229#1-AddedOffRampNode_0_1" index="1" disallow="pedestrian bicycle tram rail_urban rail rail_electric rail_fast ship" speed="27.78" length="8.20" shape="11808.43,5910.71 11816.15,5912.80"/>
        <lane id=":123961229#1-AddedOffRampNode_0_2" index="2" disallow="pedestrian bicycle tram rail_urban rail rail_electric rail_fast ship" speed="27.78" length="8.20" shape="11809.27,5907.62 11816.99,5909.71"/>
        <lane id=":123961229#1-AddedOffRampNode_0_3" index="3" disallow="pedestrian bicycle tram rail_urban rail rail_electric rail_fast ship" speed="27.78" length="8.20" shape="11810.11,5904.53 11817.83,5906.62"/>
    </edge>
    <edge id=":123961229#1-AddedOnRampNode_0" function="internal">
        <lane id=":123961229#1-AddedOnRampNode_0_0" index="0" disallow="pedestrian bicycle tram rail_urban rail rail_electric rail_fast ship" speed="27.78" length="8.20" shape="10824.32,5145.33 10826.54,5146.49 10828.43,5146.61 10830.32,5146.72 10832.55,5147.89"/>
        <lane id=":123961229#1-AddedOnRampNode_0_1" index="1" disallow="pedestrian bicycle tram rail_urban rail rail_electric rail_fast ship" speed="27.78" length="8.20" shape="10826.34,5142.85 10832.55,5147.89"/>
        <lane id=":123961229#1-AddedOnRampNode_0_2" index="2" disallow="pedestrian bicycle tram rail_urban rail rail_electric rail_fast ship" speed="27.78" length="8.20" shape="10828.35,5140.36 10834.57,5145.41"/>
        <lane id=":123961229#1-AddedOnRampNode_0_3" index="3" disallow="pedestrian bicycle tram rail_urban rail rail_electric rail_fast ship" speed="27.78" length="8.20" shape="10830.37,5137.88 10836.58,5142.92"/>
    </edge>
    <edge id=":123961236#1-AddedOffRampNode_0" function="internal">
        <lane id=":123961236#1-AddedOffRampNode_0_0" index="0" disallow="pedestrian bicycle tram rail_urban rail rail_electric rail_fast ship" speed="27.78" length="8.20" shape="8724.12,3806.18 8722.17,3804.59 8721.32,3802.90 8720.47,3801.21 8718.52,3799.63"/>
        <lane id=":123961236#1-AddedOffRampNode_0_1" index="1" disallow="pedestrian bicycle tram rail_urban rail rail_electric rail_fast ship" speed="27.78" length="8.20" shape="8724.12,3806.18 8717.04,3802.46"/>
        <lane id=":123961236#1-AddedOffRampNode_0_2" index="2" disallow="pedestrian bicycle tram rail_urban rail rail_electric rail_fast ship" speed="27.78" length="8.20" shape="8722.64,3809.01 8715.55,3805.30"/>
        <lane id=":123961236#1-AddedOffRampNode_0_3" index="3" disallow="pedestrian bicycle tram rail_urban rail rail_electric rail_fast ship" speed="27.78" length="8.20" shape="8721.15,3811.84 8714.06,3808.13"/>
    </edge>
    <edge id=":123961236#1-AddedOnRampNode_0" function="internal">
        <lane id=":123961236#1-AddedOnRampNode_0_0" index="0" disallow="pedestrian bicycle tram rail_urban rail rail_electric rail_fast ship" speed="27.78" length="8.20" shape="10431.86,4793.86 10429.62,4792.72 10427.74,4792.62 10425.85,4792.52 10423.61,4791.37"/>
        <lane id=":123961236#1-AddedOnRampNode_0_1" index="1" disallow="pedestrian bicycle tram rail_urban rail rail_electric rail_fast ship" speed="27.78" length="8.20" shape="10429.86,4796.37 10423.61,4791.37"/>
        <lane id=":123961236#1-AddedOnRampNode_0_2" index="2" disallow="pedestrian bicycle tram rail_urban rail rail_electric rail_fast ship" speed="27.78" length="8.20" shape="10427.87,4798.87 10421.62,4793.87"/>
        <lane id=":123961236#1-AddedOnRampNode_0_3" index="3" disallow="pedestrian bicycle tram rail_urban rail rail_electric rail_fast ship" speed="27.78" length="8.20" shape="10425.87,4801.37 10419.62,4796.37"/>
    </edge>
    <edge id=":123961236#13-AddedOffRampNode_0" function="internal">
        <lane id=":123961236#13-AddedOffRampNode_0_0" index="0" disallow="pedestrian bicycle tram rail_urban rail rail_electric rail_fast ship" speed="27.78" length="8.59" shape="3879.56,1228.76 3878.00,1226.60 3877.87,1224.41 3877.74,1222.23 3876.18,1220.07"/>
        <lane id=":123961236#13-AddedOffRampNode_0_1" index="1" disallow="pedestrian bicycle tram rail_urban rail rail_electric rail_fast ship" speed="27.78" length="8.59" shape="3879.56,1228.76 3877.82,1227.09 3876.89,1225.68 3875.96,1224.26 3874.22,1222.60"/>
        <lane id=":123961236#13-AddedOffRampNode_0_2" index="2" disallow="pedestrian bicycle tram rail_urban rail rail_electric rail_fast ship" speed="27.78" length="8.59" shape="3877.60,1231.29 3875.86,1229.62 3874.93,1228.21 3874.00,1226.79 3872.26,1225.13"/>
        <lane id=":123961236#13-AddedOffRampNode_0_3" index="3" disallow="pedestrian bicycle tram rail_urban rail rail_electric rail_fast ship" speed="27.78" length="8.59" shape="3875.64,1233.82 3873.90,1232.15 3872.97,1230.74 3872.04,1229.32 3870.30,1227.66"/>
    </edge>
    <edge id=":123961236#13-AddedOnRampNode_0" function="internal">
        <lane id=":123961236#13-AddedOnRampNode_0_0" index="0" disallow="pedestrian bicycle tram rail_urban rail rail_electric rail_fast ship" speed="27.78" length="8.20" shape="4138.49,1411.38 4136.19,1410.37 4134.30,1410.39 4132.41,1410.40 4130.11,1409.39"/>
        <lane id=":123961236#13-AddedOnRampNode_0_1" index="1" disallow="pedestrian bicycle tram rail_urban rail rail_electric rail_fast ship" speed="27.78" length="8.20" shape="4136.65,1413.99 4130.11,1409.39"/>
        <lane id=":123961236#13-AddedOnRampNode_0_2" index="2" disallow="pedestrian bicycle tram rail_urban rail rail_electric rail_fast ship" speed="27.78" length="8.20" shape="4134.81,1416.61 4128.26,1412.01"/>
        <lane id=":123961236#13-AddedOnRampNode_0_3" index="3" disallow="pedestrian bicycle tram rail_urban rail rail_electric rail_fast ship" speed="27.78" length="8.20" shape="4132.96,1419.23 4126.42,1414.62"/>
    </edge>
    <edge id=":123961236#7-AddedOffRampNode_0" function="internal">
        <lane id=":123961236#7-AddedOffRampNode_0_0" index="0" disallow="pedestrian bicycle tram rail_urban rail rail_electric rail_fast ship" speed="27.78" length="8.20" shape="7866.74,3412.04 7864.71,3410.57 7863.77,3408.93 7862.83,3407.29 7860.80,3405.81"/>
        <lane id=":123961236#7-AddedOffRampNode_0_1" index="1" disallow="pedestrian bicycle tram rail_urban rail rail_electric rail_fast ship" speed="27.78" length="8.20" shape="7866.74,3412.04 7859.47,3408.72"/>
        <lane id=":123961236#7-AddedOffRampNode_0_2" index="2" disallow="pedestrian bicycle tram rail_urban rail rail_electric rail_fast ship" speed="27.78" length="8.20" shape="7865.41,3414.95 7858.13,3411.63"/>
        <lane id=":123961236#7-AddedOffRampNode_0_3" index="3" disallow="pedestrian bicycle tram rail_urban rail rail_electric rail_fast ship" speed="27.78" length="8.20" shape="7864.08,3417.86 7856.80,3414.54"/>
    </edge>
    <edge id=":123961236#7-AddedOnRampNode_0" function="internal">
        <lane id=":123961236#7-AddedOnRampNode_0_0" index="0" disallow="pedestrian bicycle tram rail_urban rail rail_electric rail_fast ship" speed="27.78" length="8.20" shape="8359.33,3613.10 8356.89,3612.51 8355.03,3612.85 8353.17,3613.20 8350.73,3612.60"/>
        <lane id=":123961236#7-AddedOnRampNode_0_1" index="1" disallow="pedestrian bicycle tram rail_urban rail rail_electric rail_fast ship" speed="27.78" length="8.20" shape="8357.97,3616.00 8350.73,3612.60"/>
        <lane id=":123961236#7-AddedOnRampNode_0_2" index="2" disallow="pedestrian bicycle tram rail_urban rail rail_electric rail_fast ship" speed="27.78" length="8.20" shape="8356.61,3618.90 8349.37,3615.50"/>
        <lane id=":123961236#7-AddedOnRampNode_0_3" index="3" disallow="pedestrian bicycle tram rail_urban rail rail_electric rail_fast ship" speed="27.78" length="8.20" shape="8355.25,3621.79 8348.01,3618.40"/>
    </edge>
    <edge id=":123961236#9-AddedOffRampNode_0" function="internal">
        <lane id=":123961236#9-AddedOffRampNode_0_0" index="0" disallow="pedestrian bicycle tram rail_urban rail rail_electric rail_fast ship" speed="27.78" length="8.20" shape="5164.57,2134.44 5162.86,2132.59 5162.25,2130.80 5161.65,2129.01 5159.94,2127.17"/>
        <lane id=":123961236#9-AddedOffRampNode_0_1" index="1" disallow="pedestrian bicycle tram rail_urban rail rail_electric rail_fast ship" speed="27.78" length="8.20" shape="5164.57,2134.44 5158.07,2129.77"/>
        <lane id=":123961236#9-AddedOffRampNode_0_2" index="2" disallow="pedestrian bicycle tram rail_urban rail rail_electric rail_fast ship" speed="27.78" length="8.20" shape="5162.70,2137.04 5156.21,2132.36"/>
        <lane id=":123961236#9-AddedOffRampNode_0_3" index="3" disallow="pedestrian bicycle tram rail_urban rail rail_electric rail_fast ship" speed="27.78" length="8.20" shape="5160.83,2139.63 5154.34,2134.96"/>
    </edge>
    <edge id=":123961236#9-AddedOnRampNode_0" function="internal">
        <lane id=":123961236#9-AddedOnRampNode_0_0" index="0" disallow="pedestrian bicycle tram rail_urban rail rail_electric rail_fast ship" speed="27.78" length="8.20" shape="6581.06,2946.54 6578.57,2946.25 6576.76,2946.82 6574.96,2947.39 6572.47,2947.09"/>
        <lane id=":123961236#9-AddedOnRampNode_0_1" index="1" disallow="pedestrian bicycle tram rail_urban rail rail_electric rail_fast ship" speed="27.78" length="8.20" shape="6580.07,2949.58 6572.47,2947.09"/>
        <lane id=":123961236#9-AddedOnRampNode_0_2" index="2" disallow="pedestrian bicycle tram rail_urban rail rail_electric rail_fast ship" speed="27.78" length="8.20" shape="6579.07,2952.62 6571.47,2950.14"/>
        <lane id=":123961236#9-AddedOnRampNode_0_3" index="3" disallow="pedestrian bicycle tram rail_urban rail rail_electric rail_fast ship" speed="27.78" length="8.20" shape="6578.08,2955.67 6570.47,2953.18"/>
    </edge>
    <edge id=":123962130-AddedOffRampNode_0" function="internal">
        <lane id=":123962130-AddedOffRampNode_0_0" index="0" disallow="pedestrian bicycle tram rail_urban rail rail_electric rail_fast ship" speed="27.78" length="8.20" shape="15282.50,7310.46 15281.22,7308.30 15281.00,7306.43 15280.78,7304.55 15279.49,7302.39"/>
        <lane id=":123962130-AddedOffRampNode_0_1" index="1" disallow="pedestrian bicycle tram rail_urban rail rail_electric rail_fast ship" speed="27.78" length="8.20" shape="15282.50,7310.46 15277.12,7304.54"/>
        <lane id=":123962130-AddedOffRampNode_0_2" index="2" disallow="pedestrian bicycle tram rail_urban rail rail_electric rail_fast ship" speed="27.78" length="8.20" shape="15280.13,7312.61 15274.75,7306.69"/>
        <lane id=":123962130-AddedOffRampNode_0_3" index="3" disallow="pedestrian bicycle tram rail_urban rail rail_electric rail_fast ship" speed="27.78" length="8.20" shape="15277.76,7314.77 15272.38,7308.84"/>
    </edge>
    <edge id=":123965879#1-AddedOffRampNode_0" function="internal">
        <lane id=":123965879#1-AddedOffRampNode_0_0" index="0" disallow="pedestrian bicycle tram rail_urban rail rail_electric rail_fast ship" speed="27.78" length="8.20" shape="8715.39,3828.44 8717.35,3830.01 8718.22,3831.69 8719.08,3833.37 8721.04,3834.94"/>
        <lane id=":123965879#1-AddedOffRampNode_0_1" index="1" disallow="pedestrian bicycle tram rail_urban rail rail_electric rail_fast ship" speed="27.78" length="8.20" shape="8715.39,3828.44 8722.51,3832.09"/>
        <lane id=":123965879#1-AddedOffRampNode_0_2" index="2" disallow="pedestrian bicycle tram rail_urban rail rail_electric rail_fast ship" speed="27.78" length="8.20" shape="8716.85,3825.59 8723.97,3829.25"/>
        <lane id=":123965879#1-AddedOffRampNode_0_3" index="3" disallow="pedestrian bicycle tram rail_urban rail rail_electric rail_fast ship" speed="27.78" length="8.20" shape="8718.32,3822.74 8725.43,3826.40"/>
    </edge>
    <edge id=":123965879#1-AddedOnRampNode_0" function="internal">
        <lane id=":123965879#1-AddedOnRampNode_0_0" index="0" disallow="pedestrian bicycle tram rail_urban rail rail_electric rail_fast ship" speed="27.78" length="8.20" shape="7379.13,3203.11 7381.60,3203.55 7383.44,3203.10 7385.27,3202.65 7387.74,3203.09"/>
        <lane id=":123965879#1-AddedOnRampNode_0_1" index="1" disallow="pedestrian bicycle tram rail_urban rail rail_electric rail_fast ship" speed="27.78" length="8.20" shape="7380.31,3200.13 7387.74,3203.09"/>
        <lane id=":123965879#1-AddedOnRampNode_0_2" index="2" disallow="pedestrian bicycle tram rail_urban rail rail_electric rail_fast ship" speed="27.78" length="8.20" shape="7381.49,3197.16 7388.93,3200.12"/>
        <lane id=":123965879#1-AddedOnRampNode_0_3" index="3" disallow="pedestrian bicycle tram rail_urban rail rail_electric rail_fast ship" speed="27.78" length="8.20" shape="7382.67,3194.18 7390.11,3197.14"/>
    </edge>
    <edge id=":123965879#4-AddedOffRampNode_0" function="internal">
        <lane id=":123965879#4-AddedOffRampNode_0_0" index="0" disallow="pedestrian bicycle tram rail_urban rail rail_electric rail_fast ship" speed="27.78" length="8.20" shape="10532.38,4908.95 10534.00,4910.86 10534.53,4912.68 10535.06,4914.50 10536.68,4916.42"/>
        <lane id=":123965879#4-AddedOffRampNode_0_1" index="1" disallow="pedestrian bicycle tram rail_urban rail rail_electric rail_fast ship" speed="27.78" length="8.20" shape="10532.38,4908.95 10538.66,4913.90"/>
        <lane id=":123965879#4-AddedOffRampNode_0_2" index="2" disallow="pedestrian bicycle tram rail_urban rail rail_electric rail_fast ship" speed="27.78" length="8.20" shape="10534.36,4906.43 10540.64,4911.39"/>
        <lane id=":123965879#4-AddedOffRampNode_0_3" index="3" disallow="pedestrian bicycle tram rail_urban rail rail_electric rail_fast ship" speed="27.78" length="8.20" shape="10536.34,4903.92 10542.62,4908.88"/>
    </edge>
    <edge id=":123965879#4-AddedOnRampNode_0" function="internal">
        <lane id=":123965879#4-AddedOnRampNode_0_0" index="0" disallow="pedestrian bicycle tram rail_urban rail rail_electric rail_fast ship" speed="27.78" length="8.20" shape="9042.46,4002.37 9044.87,4003.10 9046.74,4002.85 9048.62,4002.61 9051.02,4003.33"/>
        <lane id=":123965879#4-AddedOnRampNode_0_1" index="1" disallow="pedestrian bicycle tram rail_urban rail rail_electric rail_fast ship" speed="27.78" length="8.20" shape="9043.97,3999.55 9051.02,4003.33"/>
        <lane id=":123965879#4-AddedOnRampNode_0_2" index="2" disallow="pedestrian bicycle tram rail_urban rail rail_electric rail_fast ship" speed="27.78" length="8.20" shape="9045.48,3996.73 9052.53,4000.51"/>
        <lane id=":123965879#4-AddedOnRampNode_0_3" index="3" disallow="pedestrian bicycle tram rail_urban rail rail_electric rail_fast ship" speed="27.78" length="8.20" shape="9046.99,3993.91 9054.05,3997.69"/>
    </edge>
    <edge id=":123967236#1-AddedOffRampNode_0" function="internal">
        <lane id=":123967236#1-AddedOffRampNode_0_0" index="0" disallow="pedestrian bicycle tram rail_urban rail rail_electric rail_fast ship" speed="27.78" length="8.20" shape="6538.32,2960.39 6540.52,2961.60 6541.67,2963.10 6542.81,2964.61 6545.01,2965.82"/>
        <lane id=":123967236#1-AddedOffRampNode_0_1" index="1" disallow="pedestrian bicycle tram rail_urban rail rail_electric rail_fast ship" speed="27.78" length="8.20" shape="6538.32,2960.39 6545.96,2962.77"/>
        <lane id=":123967236#1-AddedOffRampNode_0_2" index="2" disallow="pedestrian bicycle tram rail_urban rail rail_electric rail_fast ship" speed="27.78" length="8.20" shape="6539.27,2957.33 6546.91,2959.71"/>
        <lane id=":123967236#1-AddedOffRampNode_0_3" index="3" disallow="pedestrian bicycle tram rail_urban rail rail_electric rail_fast ship" speed="27.78" length="8.20" shape="6540.22,2954.28 6547.86,2956.66"/>
    </edge>
    <edge id=":123967236#1-AddedOnRampNode_0" function="internal">
        <lane id=":123967236#1-AddedOnRampNode_0_0" index="0" disallow="pedestrian bicycle tram rail_urban rail rail_electric rail_fast ship" speed="27.78" length="8.20" shape="5033.75,2074.29 5036.05,2075.32 5037.94,2075.32 5039.83,2075.32 5042.12,2076.35"/>
        <lane id=":123967236#1-AddedOnRampNode_0_1" index="1" disallow="pedestrian bicycle tram rail_urban rail rail_electric rail_fast ship" speed="27.78" length="8.20" shape="5035.62,2071.69 5042.12,2076.35"/>
        <lane id=":123967236#1-AddedOnRampNode_0_2" index="2" disallow="pedestrian bicycle tram rail_urban rail rail_electric rail_fast ship" speed="27.78" length="8.20" shape="5037.48,2069.09 5043.98,2073.75"/>
        <lane id=":123967236#1-AddedOnRampNode_0_3" index="3" disallow="pedestrian bicycle tram rail_urban rail rail_electric rail_fast ship" speed="27.78" length="8.20" shape="5039.34,2066.49 5045.85,2071.15"/>
    </edge>
    <edge id=":123969747-AddedOffRampNode_0" function="internal">
        <lane id=":123969747-AddedOffRampNode_0_0" index="0" disallow="pedestrian bicycle tram rail_urban rail rail_electric rail_fast ship" speed="27.78" length="1.60" shape="4120.58,1427.63 4119.66,1428.94"/>
        <lane id=":123969747-AddedOffRampNode_0_1" index="1" disallow="pedestrian bicycle tram rail_urban rail rail_electric rail_fast ship" speed="27.78" length="1.60" shape="4122.42,1425.01 4121.50,1426.32"/>
        <lane id=":123969747-AddedOffRampNode_0_2" index="2" disallow="pedestrian bicycle tram rail_urban rail rail_electric rail_fast ship" speed="27.78" length="1.60" shape="4124.27,1422.40 4123.34,1423.70"/>
    </edge>
    <edge id=":123969747-AddedOnRampNode_0" function="internal">
        <lane id=":123969747-AddedOnRampNode_0_0" index="0" disallow="pedestrian bicycle tram rail_urban rail rail_electric rail_fast ship" speed="27.78" length="1.63" shape="3456.46,1015.58 3457.07,1014.07"/>
        <lane id=":123969747-AddedOnRampNode_0_1" index="1" disallow="pedestrian bicycle tram rail_urban rail rail_electric rail_fast ship" speed="27.78" length="1.63" shape="3457.10,1012.44 3457.71,1010.93"/>
        <lane id=":123969747-AddedOnRampNode_0_2" index="2" disallow="pedestrian bicycle tram rail_urban rail rail_electric rail_fast ship" speed="27.78" length="1.63" shape="3457.73,1009.30 3458.35,1007.80"/>
    </edge>
    <edge id=":12531986_0" function="internal">
        <lane id=":12531986_0_0" index="0" disallow="pedestrian bicycle tram rail_urban rail rail_electric rail_fast ship" speed="27.78" length="7.35" shape="15061.40,7127.18 15062.88,7128.91 15063.91,7130.07 15065.01,7131.18 15066.64,7132.76"/>
        <lane id=":12531986_0_1" index="1" disallow="pedestrian bicycle tram rail_urban rail rail_electric rail_fast ship" speed="27.78" length="7.35" shape="15063.83,7125.11 15065.25,7126.76 15066.25,7127.88 15067.29,7128.94 15068.86,7130.46"/>
        <lane id=":12531986_0_2" index="2" disallow="pedestrian bicycle tram rail_urban rail rail_electric rail_fast ship" speed="27.78" length="7.35" shape="15066.27,7123.03 15067.63,7124.62 15068.58,7125.68 15069.58,7126.70 15071.08,7128.15"/>
    </edge>
    <edge id=":12531986_3" function="internal">
        <lane id=":12531986_3_0" index="0" disallow="pedestrian bicycle tram rail_urban rail rail_electric rail_fast ship" speed="27.78" length="7.98" shape="15059.00,7129.22 15060.53,7131.03 15061.60,7132.25 15062.72,7133.42 15064.42,7135.07"/>
    </edge>
    <edge id=":12659312_0" function="internal">
        <lane id=":12659312_0_0" index="0" disallow="pedestrian bicycle tram rail_urban rail rail_electric rail_fast ship" speed="27.78" length="13.66" shape="3357.92,1004.80 3361.20,1004.48 3364.06,1004.22 3367.25,1004.15 3371.55,1004.40"/>
    </edge>
    <edge id=":12659312_1" function="internal">
        <lane id=":12659312_1_0" index="0" disallow="pedestrian bicycle tram rail_urban rail rail_electric rail_fast ship" speed="27.78" length="5.94" shape="3365.99,1000.42 3371.83,1001.21"/>
        <lane id=":12659312_1_1" index="1" disallow="pedestrian bicycle tram rail_urban rail rail_electric rail_fast ship" speed="27.78" length="5.94" shape="3366.16,997.23 3372.11,998.02"/>
    </edge>
    <edge id=":12659319_0" function="internal">
        <lane id=":12659319_0_0" index="0" disallow="pedestrian bicycle tram rail_urban rail rail_electric rail_fast ship" speed="27.78" length="8.32" shape="4198.12,1484.27 4199.96,1485.88 4200.98,1487.26 4202.00,1488.65 4203.86,1490.25"/>
        <lane id=":12659319_0_1" index="1" disallow="pedestrian bicycle tram rail_urban rail rail_electric rail_fast ship" speed="27.78" length="8.32" shape="4199.96,1481.65 4201.80,1483.26 4202.82,1484.64 4203.84,1486.03 4205.69,1487.62"/>
        <lane id=":12659319_0_2" index="2" disallow="pedestrian bicycle tram rail_urban rail rail_electric rail_fast ship" speed="27.78" length="8.32" shape="4201.80,1479.04 4203.64,1480.64 4204.66,1482.02 4205.67,1483.40 4207.52,1485.00"/>
    </edge>
    <edge id=":12659319_3" function="internal">
        <lane id=":12659319_3_0" index="0" disallow="pedestrian bicycle tram rail_urban rail rail_electric rail_fast ship" speed="27.78" length="8.33" shape="4201.80,1479.04 4203.65,1480.64 4204.65,1482.04 4205.64,1483.45 4207.44,1485.11"/>
    </edge>
    <edge id=":12659335_0" function="internal">
        <lane id=":12659335_0_0" index="0" disallow="pedestrian bicycle tram rail_urban rail rail_electric rail_fast ship" speed="10.84" length="10.41" shape="12307.08,6066.54 12310.20,6066.88 12312.72,6066.51 12314.80,6066.67 12316.61,6068.59"/>
    </edge>
    <edge id=":12659335_1" function="internal">