<additional>
	<tlLogic id="111887507" type="actuated" programID="Control" offset="0">
        <phase duration="42" state="GgrrGG" minDur="10" maxDur="92"/>
        <phase duration="3" state="yyrryy" minDur="3" maxDur="3"/>
        <phase duration="42" state="rrGGGr" minDur="10" maxDur="92"/>
        <phase duration="3" state="rryyyr" minDur="3" maxDur="3"/>
    </tlLogic>
    <tlLogic id="1166303463" type="actuated" programID="Control" offset="0">
        <phase duration="81" state="GG" minDur="10" maxDur="131"/>
        <phase duration="4" state="yy" minDur="4" maxDur="4"/>
        <phase duration="5" state="rr" minDur="5" maxDur="5"/>
    </tlLogic>
    <tlLogic id="1166303466" type="actuated" programID="Control" offset="0">
        <phase duration="81" state="GGG" minDur="10" maxDur="131"/>
        <phase duration="4" state="yyy" minDur="4" maxDur="4"/>
        <phase duration="5" state="rrr" minDur="5" maxDur="5"/>
    </tlLogic>
    <tlLogic id="11675194" type="actuated" programID="Control" offset="0">
        <phase duration="42" state="GGgrrrGGgrr" minDur="10" maxDur="92"/>
        <phase duration="3" state="yyyrrryyyrr" minDur="3" maxDur="3"/>
        <phase duration="42" state="rrrGGgrrrGg" minDur="10" maxDur="92"/>
        <phase duration="3" state="rrryyyrrryy" minDur="3" maxDur="3"/>
    </tlLogic>
    <tlLogic id="11675212" type="actuated" programID="Control" offset="0">
        <phase duration="38" state="GGgrrrrGGggrrrrr" minDur="10" maxDur="88"/>
        <phase duration="3" state="yygrrrryyggrrrrr" minDur="3" maxDur="3"/>
        <phase duration="6" state="rrGrrrrrrGGrrrrr" minDur="6" maxDur="56"/>
        <phase duration="3" state="rryrrrrrryyrrrrr" minDur="3" maxDur="3"/>
        <phase duration="37" state="rrrGGGgrrrrGGGgg" minDur="10" maxDur="87"/>
        <phase duration="3" state="rrryyyyrrrryyyyy" minDur="3" maxDur="3"/>
    </tlLogic>
    <tlLogic id="11675214" type="actuated" programID="Control" offset="0">
        <phase duration="82" state="G" minDur="10" maxDur="132"/>
        <phase duration="3" state="y" minDur="3" maxDur="3"/>
        <phase duration="5" state="r" minDur="5" maxDur="5"/>
    </tlLogic>
    <tlLogic id="11675387" type="actuated" programID="Control" offset="0">
        <phase duration="42" state="GGgrrGGG" minDur="10" maxDur="92"/>
        <phase duration="3" state="yyyrryyy" minDur="3" maxDur="3"/>
        <phase duration="42" state="rrrGGGrr" minDur="10" maxDur="92"/>
        <phase duration="3" state="rrryyyrr" minDur="3" maxDur="3"/>
    </tlLogic>
    <tlLogic id="117707333" type="actuated" programID="Control" offset="0">
        <phase duration="27" state="GGGrrr" minDur="10" maxDur="77"/>
        <phase duration="3" state="yyyrrr" minDur="3" maxDur="3"/>
        <phase duration="27" state="rrGGGr" minDur="10" maxDur="77"/>
        <phase duration="3" state="rryyyr" minDur="3" maxDur="3"/>
        <phase duration="27" state="GrrrGG" minDur="10" maxDur="77"/>
        <phase duration="3" state="yrrryy" minDur="3" maxDur="3"/>
    </tlLogic>
    <tlLogic id="12117926" type="actuated" programID="Control" offset="0">
        <phase duration="42" state="GrrrGG" minDur="10" maxDur="92"/>
        <phase duration="3" state="yrrryy" minDur="3" maxDur="3"/>
        <phase duration="42" state="GGGgrr" minDur="10" maxDur="92"/>
        <phase duration="3" state="yyyyrr" minDur="3" maxDur="3"/>
    </tlLogic>
    <tlLogic id="12117928" type="actuated" programID="Control" offset="0">
        <phase duration="38" state="rrrGGGgrrrGGGg" minDur="10" maxDur="88"/>
        <phase duration="3" state="rrryyyyrrryyyy" minDur="3" maxDur="3"/>
        <phase duration="37" state="GGgrrrrGGgrrrr" minDur="10" maxDur="87"/>
        <phase duration="3" state="yygrrrryygrrrr" minDur="3" maxDur="3"/>
        <phase duration="6" state="rrGrrrrrrGrrrr" minDur="6" maxDur="56"/>
        <phase duration="3" state="rryrrrrrryrrrr" minDur="3" maxDur="3"/>
    </tlLogic>
    <tlLogic id="12118455" type="actuated" programID="Control" offset="0">
        <phase duration="42" state="GGgrrGGG" minDur="10" maxDur="92"/>
        <phase duration="3" state="yyyrryyy" minDur="3" maxDur="3"/>
        <phase duration="42" state="rrrGGGrr" minDur="10" maxDur="92"/>
        <phase duration="3" state="rrryyyrr" minDur="3" maxDur="3"/>
    </tlLogic>
    <tlLogic id="12119108" type="actuated" programID="Control" offset="0">
        <phase duration="38" state="GGgrrrGGg" minDur="10" maxDur="88"/>
        <phase duration="3" state="yygrrryyg" minDur="3" maxDur="3"/>
        <phase duration="6" state="rrGrrrrrG" minDur="6" maxDur="56"/>
        <phase duration="3" state="rryrrrrry" minDur="3" maxDur="3"/>
        <phase duration="37" state="rrrGGGGrr" minDur="10" maxDur="87"/>
        <phase duration="3" state="rrryyyyrr" minDur="3" maxDur="3"/>
    </tlLogic>
    <tlLogic id="12246878" type="actuated" programID="Control" offset="0">
        <phase duration="42" state="rrrGGgrrrGGg" minDur="10" maxDur="92"/>
        <phase duration="3" state="rrryyyrrryyy" minDur="3" maxDur="3"/>
        <phase duration="42" state="GGgrrrGGgrrr" minDur="10" maxDur="92"/>
        <phase duration="3" state="yyyrrryyyrrr" minDur="3" maxDur="3"/>
    </tlLogic>
    <tlLogic id="12428385" type="actuated" programID="Control" offset="0">
        <phase duration="42" state="GGGGgrr" minDur="10" maxDur="92"/>
        <phase duration="3" state="yyyyyrr" minDur="3" maxDur="3"/>
        <phase duration="42" state="GrrrrGG" minDur="10" maxDur="92"/>
        <phase duration="3" state="yrrrryy" minDur="3" maxDur="3"/>
    </tlLogic>
    <tlLogic id="12428410" type="actuated" programID="Control" offset="0">
        <phase duration="27" state="GGrrrrGG" minDur="10" maxDur="77"/>
        <phase duration="3" state="yyrrrryy" minDur="3" maxDur="3"/>
        <phase duration="27" state="rrGGGGrr" minDur="10" maxDur="77"/>
        <phase duration="3" state="rryyyyrr" minDur="3" maxDur="3"/>
        <phase duration="27" state="GGGrrrrr" minDur="10" maxDur="77"/>
        <phase duration="3" state="yyyrrrrr" minDur="3" maxDur="3"/>
    </tlLogic>
    <tlLogic id="12428431" type="actuated" programID="Control" offset="0">
        <phase duration="82" state="GGGGgg" minDur="10" maxDur="132"/>
        <phase duration="3" state="yyyyyy" minDur="3" maxDur="3"/>
        <phase duration="5" state="rrrrrr" minDur="5" maxDur="5"/>
    </tlLogic>
    <tlLogic id="1250409670" type="actuated" programID="Control" offset="0">
        <phase duration="82" state="GG" minDur="10" maxDur="132"/>
        <phase duration="3" state="yy" minDur="3" maxDur="3"/>
        <phase duration="5" state="rr" minDur="5" maxDur="5"/>
    </tlLogic>
    <tlLogic id="1260858724" type="actuated" programID="Control" offset="0">
        <phase duration="42" state="GGGGGgrr" minDur="10" maxDur="92"/>
        <phase duration="3" state="yyyyyyrr" minDur="3" maxDur="3"/>
        <phase duration="42" state="GrrrrrGG" minDur="10" maxDur="92"/>
        <phase duration="3" state="yrrrrryy" minDur="3" maxDur="3"/>
    </tlLogic>
    <tlLogic id="1260885026" type="actuated" programID="Control" offset="0">
        <phase duration="27" state="GrrrrGG" minDur="10" maxDur="77"/>
        <phase duration="3" state="yrrrryy" minDur="3" maxDur="3"/>
        <phase duration="27" state="rrGGGGr" minDur="10" maxDur="77"/>
        <phase duration="3" state="rryyyyr" minDur="3" maxDur="3"/>
        <phase duration="27" state="GGGrrGr" minDur="10" maxDur="77"/>
        <phase duration="3" state="yyyrryr" minDur="3" maxDur="3"/>
    </tlLogic>
    <tlLogic id="12639664" type="actuated" programID="Control" offset="0">
        <phase duration="42" state="GGGGGrrrrrr" minDur="10" maxDur="92"/>
        <phase duration="3" state="yyyyyrrrrrr" minDur="3" maxDur="3"/>
        <phase duration="42" state="rrrrrGGGGGG" minDur="10" maxDur="92"/>
        <phase duration="3" state="rrrrryyyyyy" minDur="3" maxDur="3"/>
    </tlLogic>
    <tlLogic id="12640083" type="actuated" programID="Control" offset="0">
        <phase duration="42" state="GGGrr" minDur="10" maxDur="92"/>
        <phase duration="3" state="yyyrr" minDur="3" maxDur="3"/>
        <phase duration="42" state="rrrGG" minDur="10" maxDur="92"/>
        <phase duration="3" state="rrryy" minDur="3" maxDur="3"/>
    </tlLogic>
    <tlLogic id="12640084" type="actuated" programID="Control" offset="0">
        <phase duration="42" state="GGGrr" minDur="10" maxDur="92"/>
        <phase duration="3" state="yyyrr" minDur="3" maxDur="3"/>
        <phase duration="42" state="rrrGG" minDur="10" maxDur="92"/>
        <phase duration="3" state="rrryy" minDur="3" maxDur="3"/>
    </tlLogic>
    <tlLogic id="12649687" type="actuated" programID="Control" offset="0">
        <phase duration="42" state="rrrGGGgGGGg" minDur="10" maxDur="92"/>
        <phase duration="3" state="rrryyyyyyyy" minDur="3" maxDur="3"/>
        <phase duration="42" state="GGGGrrrrrrr" minDur="10" maxDur="92"/>
        <phase duration="3" state="yyyyrrrrrrr" minDur="3" maxDur="3"/>
    </tlLogic>
    <tlLogic id="1267301412" type="actuated" programID="Control" offset="0">
        <phase duration="42" state="GGGGGgrr" minDur="10" maxDur="92"/>
        <phase duration="3" state="yyyyyyrr" minDur="3" maxDur="3"/>
        <phase duration="42" state="GrrrrrGG" minDur="10" maxDur="92"/>
        <phase duration="3" state="yrrrrryy" minDur="3" maxDur="3"/>
    </tlLogic>
    <tlLogic id="12784890" type="actuated" programID="Control" offset="0">
        <phase duration="42" state="rrGGGg" minDur="10" maxDur="92"/>
        <phase duration="3" state="rryyyy" minDur="3" maxDur="3"/>
        <phase duration="42" state="GGGrGr" minDur="10" maxDur="92"/>
        <phase duration="3" state="yyyryr" minDur="3" maxDur="3"/>
    </tlLogic>
    <tlLogic id="12784893" type="actuated" programID="Control" offset="0">
        <phase duration="42" state="GGgrrrGGGgrrr" minDur="10" maxDur="92"/>
        <phase duration="3" state="yyyrrryyyyrrr" minDur="3" maxDur="3"/>
        <phase duration="42" state="rrrGGgrrrrGGg" minDur="10" maxDur="92"/>
        <phase duration="3" state="rrryyyrrrryyy" minDur="3" maxDur="3"/>
    </tlLogic>
    <tlLogic id="12792674" type="actuated" programID="Control" offset="0">
        <phase duration="42" state="GGGGrrr" minDur="10" maxDur="92"/>
        <phase duration="3" state="yyyyrrr" minDur="3" maxDur="3"/>
        <phase duration="42" state="rrrrGGG" minDur="10" maxDur="92"/>
        <phase duration="3" state="rrrryyy" minDur="3" maxDur="3"/>
    </tlLogic>
    <tlLogic id="12867392" type="actuated" programID="Control" offset="0">
        <phase duration="42" state="GGgrrGGG" minDur="10" maxDur="92"/>
        <phase duration="3" state="yyyrryyy" minDur="3" maxDur="3"/>
        <phase duration="42" state="rrrGGGrr" minDur="10" maxDur="92"/>
        <phase duration="3" state="rrryyyrr" minDur="3" maxDur="3"/>
    </tlLogic>
    <tlLogic id="1294004372" type="actuated" programID="Control" offset="0">
        <phase duration="82" state="GG" minDur="10" maxDur="132"/>
        <phase duration="3" state="yy" minDur="3" maxDur="3"/>
        <phase duration="5" state="rr" minDur="5" maxDur="5"/>
    </tlLogic>
    <tlLogic id="1294904418" type="actuated" programID="Control" offset="0">
        <phase duration="27" state="rrrrrGGGGggrrrrrrGGGGgg" minDur="10" maxDur="77"/>
        <phase duration="3" state="rrrrryyyyyyrrrrrryyyyyy" minDur="3" maxDur="3"/>
        <phase duration="27" state="GGGggrrrrrrrGGGggrrrrrr" minDur="10" maxDur="77"/>
        <phase duration="3" state="yyyyyrrrrrrryyyyyrrrrrr" minDur="3" maxDur="3"/>
        <phase duration="27" state="GGGGrGrrrrrGrrrrrrrrrrr" minDur="10" maxDur="77"/>
        <phase duration="3" state="yyyyryrrrrryrrrrrrrrrrr" minDur="3" maxDur="3"/>
    </tlLogic>
    <tlLogic id="1346901" type="actuated" programID="Control" offset="0">
        <phase duration="42" state="GGrrGGG" minDur="10" maxDur="92"/>
        <phase duration="3" state="yyrryyy" minDur="3" maxDur="3"/>
        <phase duration="42" state="rrGGGrr" minDur="10" maxDur="92"/>
        <phase duration="3" state="rryyyrr" minDur="3" maxDur="3"/>
    </tlLogic>
    <tlLogic id="1346905" type="actuated" programID="Control" offset="0">
        <phase duration="38" state="GGGgrrrGGGgrrrr" minDur="10" maxDur="88"/>
        <phase duration="3" state="yyyyrrryyyyrrrr" minDur="3" maxDur="3"/>
        <phase duration="37" state="rrrrGGgrrrrGGGg" minDur="10" maxDur="87"/>
        <phase duration="3" state="rrrryygrrrryyyg" minDur="3" maxDur="3"/>
        <phase duration="6" state="rrrrrrGrrrrrrrG" minDur="6" maxDur="56"/>
        <phase duration="3" state="rrrrrryrrrrrrry" minDur="3" maxDur="3"/>
    </tlLogic>
    <tlLogic id="134850078" type="actuated" programID="Control" offset="0">
        <phase duration="82" state="G" minDur="10" maxDur="132"/>
        <phase duration="3" state="y" minDur="3" maxDur="3"/>
        <phase duration="5" state="r" minDur="5" maxDur="5"/>
    </tlLogic>
    <tlLogic id="1396426597" type="actuated" programID="Control" offset="0">
        <phase duration="42" state="GGgrrGGG" minDur="10" maxDur="92"/>
        <phase duration="3" state="yyyrryyy" minDur="3" maxDur="3"/>
        <phase duration="42" state="rrrGGGrr" minDur="10" maxDur="92"/>
        <phase duration="3" state="rrryyyrr" minDur="3" maxDur="3"/>
    </tlLogic>
    <tlLogic id="1396441238" type="actuated" programID="Control" offset="0">
        <phase duration="82" state="GGGG" minDur="10" maxDur="132"/>
        <phase duration="3" state="yyyy" minDur="3" maxDur="3"/>
        <phase duration="5" state="rrrr" minDur="5" maxDur="5"/>
    </tlLogic>
    <tlLogic id="1396443488" type="actuated" programID="Control" offset="0">
        <phase duration="78" state="GGgGGG" minDur="10" maxDur="128"/>
        <phase duration="3" state="yygyyy" minDur="3" maxDur="3"/>
        <phase duration="6" state="GGGrrr" minDur="6" maxDur="56"/>
        <phase duration="3" state="yyyrrr" minDur="3" maxDur="3"/>
    </tlLogic>
    <tlLogic id="1396454306" type="actuated" programID="Control" offset="0">
        <phase duration="42" state="GGrr" minDur="10" maxDur="92"/>
        <phase duration="3" state="yyrr" minDur="3" maxDur="3"/>
        <phase duration="42" state="rrGG" minDur="10" maxDur="92"/>
        <phase duration="3" state="rryy" minDur="3" maxDur="3"/>
    </tlLogic>
    <tlLogic id="1396858833" type="actuated" programID="Control" offset="0">
        <phase duration="42" state="GGrGG" minDur="10" maxDur="92"/>
        <phase duration="3" state="yyryy" minDur="3" maxDur="3"/>
        <phase duration="42" state="GGGGr" minDur="10" maxDur="92"/>
        <phase duration="3" state="yyyyr" minDur="3" maxDur="3"/>
    </tlLogic>
    <tlLogic id="1396869619" type="actuated" programID="Control" offset="0">
        <phase duration="82" state="GGG" minDur="10" maxDur="132"/>
        <phase duration="3" state="yyy" minDur="3" maxDur="3"/>
        <phase duration="5" state="rrr" minDur="5" maxDur="5"/>
    </tlLogic>
    <tlLogic id="1396960579" type="actuated" programID="Control" offset="0">
        <phase duration="42" state="GGGGrrrrr" minDur="10" maxDur="92"/>
        <phase duration="3" state="yyyyrrrrr" minDur="3" maxDur="3"/>
        <phase duration="42" state="rrrrGGGGG" minDur="10" maxDur="92"/>
        <phase duration="3" state="rrrryyyyy" minDur="3" maxDur="3"/>
    </tlLogic>
    <tlLogic id="1410013998" type="actuated" programID="Control" offset="0">
        <phase duration="42" state="GG" minDur="10" maxDur="92"/>
        <phase duration="3" state="yy" minDur="3" maxDur="3"/>
        <phase duration="42" state="GG" minDur="10" maxDur="92"/>
        <phase duration="3" state="yy" minDur="3" maxDur="3"/>
    </tlLogic>
    <tlLogic id="1410014374" type="actuated" programID="Control" offset="0">
        <phase duration="38" state="GGgrrrGGGgrrr" minDur="10" maxDur="88"/>
        <phase duration="3" state="yygrrryyygrrr" minDur="3" maxDur="3"/>
        <phase duration="6" state="rrGrrrrrrGrrr" minDur="6" maxDur="56"/>
        <phase duration="3" state="rryrrrrrryrrr" minDur="3" maxDur="3"/>
        <phase duration="37" state="rrrGGgrrrrGGg" minDur="10" maxDur="87"/>
        <phase duration="3" state="rrryyyrrrryyy" minDur="3" maxDur="3"/>
    </tlLogic>
    <tlLogic id="1415568601" type="actuated" programID="Control" offset="0">
        <phase duration="42" state="GGGrrr" minDur="10" maxDur="92"/>
        <phase duration="3" state="yyyrrr" minDur="3" maxDur="3"/>
        <phase duration="42" state="rrrGGG" minDur="10" maxDur="92"/>
        <phase duration="3" state="rrryyy" minDur="3" maxDur="3"/>
    </tlLogic>
    <tlLogic id="1419098342" type="actuated" programID="Control" offset="0">
        <phase duration="42" state="GGGGgrrrrGGGggrrrr" minDur="10" maxDur="92"/>
        <phase duration="3" state="yyyyyrrrryyyyyrrrr" minDur="3" maxDur="3"/>
        <phase duration="42" state="rrrrrGGGgrrrrrGGgg" minDur="10" maxDur="92"/>
        <phase duration="3" state="rrrrryyyyrrrrryyyy" minDur="3" maxDur="3"/>
    </tlLogic>
    <tlLogic id="1420144276" type="actuated" programID="Control" offset="0">
        <phase duration="42" state="GGrrGGg" minDur="10" maxDur="92"/>
        <phase duration="3" state="yyrryyy" minDur="3" maxDur="3"/>
        <phase duration="42" state="rrGGrrr" minDur="10" maxDur="92"/>
        <phase duration="3" state="rryyrrr" minDur="3" maxDur="3"/>
    </tlLogic>
    <tlLogic id="1420144288" type="actuated" programID="Control" offset="0">
        <phase duration="42" state="rrrGGgrrrGGg" minDur="10" maxDur="92"/>
        <phase duration="3" state="rrryyyrrryyy" minDur="3" maxDur="3"/>
        <phase duration="42" state="GGgrrrGGgrrr" minDur="10" maxDur="92"/>
        <phase duration="3" state="yyyrrryyyrrr" minDur="3" maxDur="3"/>
    </tlLogic>
    <tlLogic id="1420144383" type="actuated" programID="Control" offset="0">
        <phase duration="42" state="GGGGGGgrr" minDur="10" maxDur="92"/>
        <phase duration="3" state="yyyyyyyrr" minDur="3" maxDur="3"/>
        <phase duration="42" state="GrrrrrrGG" minDur="10" maxDur="92"/>
        <phase duration="3" state="yrrrrrryy" minDur="3" maxDur="3"/>
    </tlLogic>
    <tlLogic id="1420456308" type="actuated" programID="Control" offset="0">
        <phase duration="42" state="GGGgrrrGGGgrrr" minDur="10" maxDur="92"/>
        <phase duration="3" state="yyyyrrryyyyrrr" minDur="3" maxDur="3"/>
        <phase duration="42" state="rrrrGGgrrrrGGg" minDur="10" maxDur="92"/>
        <phase duration="3" state="rrrryyyrrrryyy" minDur="3" maxDur="3"/>
    </tlLogic>
    <tlLogic id="1422227360" type="actuated" programID="Control" offset="0">
        <phase duration="82" state="GG" minDur="10" maxDur="132"/>
        <phase duration="3" state="yy" minDur="3" maxDur="3"/>
        <phase duration="5" state="rr" minDur="5" maxDur="5"/>
    </tlLogic>
    <tlLogic id="1422255761" type="actuated" programID="Control" offset="0">
        <phase duration="42" state="GGGGrrr" minDur="10" maxDur="92"/>
        <phase duration="3" state="yyyyrrr" minDur="3" maxDur="3"/>
        <phase duration="42" state="rrrrGGG" minDur="10" maxDur="92"/>
        <phase duration="3" state="rrrryyy" minDur="3" maxDur="3"/>
    </tlLogic>
    <tlLogic id="1426048871" type="actuated" programID="Control" offset="0">
        <phase duration="27" state="GGrrrrGG" minDur="10" maxDur="77"/>
        <phase duration="3" state="yyrrrryy" minDur="3" maxDur="3"/>
        <phase duration="27" state="GGGGrrrr" minDur="10" maxDur="77"/>
        <phase duration="3" state="yyyyrrrr" minDur="3" maxDur="3"/>
        <phase duration="27" state="rrrGGGrr" minDur="10" maxDur="77"/>
        <phase duration="3" state="rrryyyrr" minDur="3" maxDur="3"/>
    </tlLogic>
    <tlLogic id="1426100476" type="actuated" programID="Control" offset="0">
        <phase duration="42" state="rrrGGGgrrrGGGg" minDur="10" maxDur="92"/>
        <phase duration="3" state="rrryyyyrrryyyy" minDur="3" maxDur="3"/>
        <phase duration="42" state="GGgrrrrGGgrrrr" minDur="10" maxDur="92"/>
        <phase duration="3" state="yyyrrrryyyrrrr" minDur="3" maxDur="3"/>
    </tlLogic>
    <tlLogic id="1426821215" type="actuated" programID="Control" offset="0">
        <phase duration="42" state="GGGGGgGr" minDur="10" maxDur="92"/>
        <phase duration="3" state="yyyyyyyr" minDur="3" maxDur="3"/>
        <phase duration="42" state="GrrrrrGG" minDur="10" maxDur="92"/>
        <phase duration="3" state="yrrrrryy" minDur="3" maxDur="3"/>
    </tlLogic>
    <tlLogic id="1430847303" type="actuated" programID="Control" offset="0">
        <phase duration="42" state="GGrr" minDur="10" maxDur="92"/>
        <phase duration="3" state="yyrr" minDur="3" maxDur="3"/>
        <phase duration="42" state="rrGG" minDur="10" maxDur="92"/>
        <phase duration="3" state="rryy" minDur="3" maxDur="3"/>
    </tlLogic>
    <tlLogic id="1431043259" type="actuated" programID="Control" offset="0">
        <phase duration="82" state="GGGG" minDur="10" maxDur="132"/>
        <phase duration="3" state="yyyy" minDur="3" maxDur="3"/>
        <phase duration="5" state="rrrr" minDur="5" maxDur="5"/>
    </tlLogic>
    <tlLogic id="1431043268" type="actuated" programID="Control" offset="0">
        <phase duration="42" state="GGgrrGGG" minDur="10" maxDur="92"/>
        <phase duration="3" state="yyyrryyy" minDur="3" maxDur="3"/>
        <phase duration="42" state="rrrGGGrr" minDur="10" maxDur="92"/>
        <phase duration="3" state="rrryyyrr" minDur="3" maxDur="3"/>
    </tlLogic>
    <tlLogic id="1431043279" type="actuated" programID="Control" offset="0">
        <phase duration="82" state="GGGGG" minDur="10" maxDur="132"/>
        <phase duration="3" state="yyyyy" minDur="3" maxDur="3"/>
        <phase duration="5" state="rrrrr" minDur="5" maxDur="5"/>
    </tlLogic>
    <tlLogic id="1442736" type="actuated" programID="Control" offset="0">
        <phase duration="42" state="GGGGrrrr" minDur="10" maxDur="92"/>
        <phase duration="3" state="yyyyrrrr" minDur="3" maxDur="3"/>
        <phase duration="42" state="rrrrGGGG" minDur="10" maxDur="92"/>
        <phase duration="3" state="rrrryyyy" minDur="3" maxDur="3"/>
    </tlLogic>
    <tlLogic id="1442742" type="actuated" programID="Control" offset="0">
        <phase duration="82" state="G" minDur="10" maxDur="132"/>
        <phase duration="3" state="y" minDur="3" maxDur="3"/>
        <phase duration="5" state="r" minDur="5" maxDur="5"/>
    </tlLogic>
    <tlLogic id="1442755" type="actuated" programID="Control" offset="0">
        <phase duration="42" state="GGrr" minDur="10" maxDur="92"/>
        <phase duration="3" state="yyrr" minDur="3" maxDur="3"/>
        <phase duration="42" state="rrGG" minDur="10" maxDur="92"/>
        <phase duration="3" state="rryy" minDur="3" maxDur="3"/>
    </tlLogic>
    <tlLogic id="1447301" type="actuated" programID="Control" offset="0">
        <phase duration="42" state="GGGrrr" minDur="10" maxDur="92"/>
        <phase duration="3" state="yyyrrr" minDur="3" maxDur="3"/>
        <phase duration="42" state="rrrGGG" minDur="10" maxDur="92"/>
        <phase duration="3" state="rrryyy" minDur="3" maxDur="3"/>
    </tlLogic>
    <tlLogic id="144837225" type="actuated" programID="Control" offset="0">
        <phase duration="27" state="rrrGGgrrGGG" minDur="10" maxDur="77"/>
        <phase duration="3" state="rrryyyrryyy" minDur="3" maxDur="3"/>
        <phase duration="27" state="GGGrrrrrrrr" minDur="10" maxDur="77"/>
        <phase duration="3" state="yyyrrrrrrrr" minDur="3" maxDur="3"/>
        <phase duration="27" state="rrrrrrGGGrr" minDur="10" maxDur="77"/>
        <phase duration="3" state="rrrrrryyyrr" minDur="3" maxDur="3"/>
    </tlLogic>
    <tlLogic id="144837827" type="actuated" programID="Control" offset="0">
        <phase duration="42" state="GGGgrrrGGGg" minDur="10" maxDur="92"/>
        <phase duration="3" state="yyyyrrryyyy" minDur="3" maxDur="3"/>
        <phase duration="42" state="rrrrGGGGrrr" minDur="10" maxDur="92"/>
        <phase duration="3" state="rrrryyyyrrr" minDur="3" maxDur="3"/>
    </tlLogic>
    <tlLogic id="144841406" type="actuated" programID="Control" offset="0">
        <phase duration="42" state="GGgrrGGG" minDur="10" maxDur="92"/>
        <phase duration="3" state="yyyrryyy" minDur="3" maxDur="3"/>
        <phase duration="42" state="rrrGGGrr" minDur="10" maxDur="92"/>
        <phase duration="3" state="rrryyyrr" minDur="3" maxDur="3"/>
    </tlLogic>
    <tlLogic id="1448436" type="actuated" programID="Control" offset="0">
        <phase duration="42" state="rrrGGGG" minDur="10" maxDur="92"/>
        <phase duration="3" state="rrryyyy" minDur="3" maxDur="3"/>
        <phase duration="42" state="GGGGrrr" minDur="10" maxDur="92"/>
        <phase duration="3" state="yyyyrrr" minDur="3" maxDur="3"/>
    </tlLogic>
    <tlLogic id="1448442" type="actuated" programID="Control" offset="0">
        <phase duration="42" state="rrrGgGG" minDur="10" maxDur="92"/>
        <phase duration="3" state="rrryyyy" minDur="3" maxDur="3"/>
        <phase duration="42" state="GGGrrrr" minDur="10" maxDur="92"/>
        <phase duration="3" state="yyyrrrr" minDur="3" maxDur="3"/>
    </tlLogic>
    <tlLogic id="1448444" type="actuated" programID="Control" offset="0">
        <phase duration="42" state="GGgrrGGGgrr" minDur="10" maxDur="92"/>
        <phase duration="3" state="yyyrryyyyrr" minDur="3" maxDur="3"/>
        <phase duration="42" state="rrrGGrrrrGG" minDur="10" maxDur="92"/>
        <phase duration="3" state="rrryyrrrryy" minDur="3" maxDur="3"/>
    </tlLogic>
    <tlLogic id="14955950" type="actuated" programID="Control" offset="0">
        <phase duration="42" state="GGgrrrGGgrrr" minDur="10" maxDur="92"/>
        <phase duration="3" state="yyyrrryyyrrr" minDur="3" maxDur="3"/>
        <phase duration="42" state="rrrGGgrrrGGg" minDur="10" maxDur="92"/>
        <phase duration="3" state="rrryyyrrryyy" minDur="3" maxDur="3"/>
    </tlLogic>
    <tlLogic id="14957877" type="actuated" programID="Control" offset="0">
        <phase duration="42" state="GGgrrrGGgrrr" minDur="10" maxDur="92"/>
        <phase duration="3" state="yyyrrryyyrrr" minDur="3" maxDur="3"/>
        <phase duration="42" state="rrrGGgrrrGGg" minDur="10" maxDur="92"/>
        <phase duration="3" state="rrryyyrrryyy" minDur="3" maxDur="3"/>
    </tlLogic>
    <tlLogic id="1497227446" type="actuated" programID="Control" offset="0">
        <phase duration="82" state="G" minDur="10" maxDur="132"/>
        <phase duration="3" state="y" minDur="3" maxDur="3"/>
        <phase duration="5" state="r" minDur="5" maxDur="5"/>
    </tlLogic>
    <tlLogic id="1497230537" type="actuated" programID="Control" offset="0">
        <phase duration="42" state="GGGrr" minDur="10" maxDur="92"/>
        <phase duration="3" state="yyyrr" minDur="3" maxDur="3"/>
        <phase duration="42" state="rrrGG" minDur="10" maxDur="92"/>
        <phase duration="3" state="rrryy" minDur="3" maxDur="3"/>
    </tlLogic>
    <tlLogic id="1508507003" type="actuated" programID="Control" offset="0">
        <phase duration="42" state="GGgrrGGGG" minDur="10" maxDur="92"/>
        <phase duration="3" state="yyyrryyyy" minDur="3" maxDur="3"/>
        <phase duration="42" state="rrrGGGrrr" minDur="10" maxDur="92"/>
        <phase duration="3" state="rrryyyrrr" minDur="3" maxDur="3"/>
    </tlLogic>
    <tlLogic id="1509385147" type="actuated" programID="Control" offset="0">
        <phase duration="42" state="GGgrrGGGG" minDur="10" maxDur="92"/>
        <phase duration="3" state="yyyrryyyy" minDur="3" maxDur="3"/>
        <phase duration="42" state="rrrGGGrrr" minDur="10" maxDur="92"/>
        <phase duration="3" state="rrryyyrrr" minDur="3" maxDur="3"/>
    </tlLogic>
    <tlLogic id="1695350010" type="actuated" programID="Control" offset="0">
        <phase duration="82" state="GG" minDur="10" maxDur="132"/>
        <phase duration="3" state="yy" minDur="3" maxDur="3"/>
        <phase duration="5" state="rr" minDur="5" maxDur="5"/>
    </tlLogic>
    <tlLogic id="1703224212" type="actuated" programID="Control" offset="0">
        <phase duration="82" state="GG" minDur="10" maxDur="132"/>
        <phase duration="3" state="yy" minDur="3" maxDur="3"/>
        <phase duration="5" state="rr" minDur="5" maxDur="5"/>
    </tlLogic>
    <tlLogic id="170789284" type="actuated" programID="Control" offset="0">
        <phase duration="42" state="GGGrrGG" minDur="10" maxDur="92"/>
        <phase duration="3" state="yyyrryy" minDur="3" maxDur="3"/>
        <phase duration="42" state="GrrGGrr" minDur="10" maxDur="92"/>
        <phase duration="3" state="yrryyrr" minDur="3" maxDur="3"/>
    </tlLogic>
    <tlLogic id="18896129" type="actuated" programID="Control" offset="0">
        <phase duration="42" state="GGGGGgrr" minDur="10" maxDur="92"/>
        <phase duration="3" state="yyyyyyrr" minDur="3" maxDur="3"/>
        <phase duration="42" state="GrrrrrGG" minDur="10" maxDur="92"/>
        <phase duration="3" state="yrrrrryy" minDur="3" maxDur="3"/>
    </tlLogic>
    <tlLogic id="1957234334" type="actuated" programID="Control" offset="0">
        <phase duration="82" state="GGGG" minDur="10" maxDur="132"/>
        <phase duration="3" state="yyyy" minDur="3" maxDur="3"/>
        <phase duration="5" state="rrrr" minDur="5" maxDur="5"/>
    </tlLogic>
    <tlLogic id="20299837" type="actuated" programID="Control" offset="0">
        <phase duration="38" state="GGgrrrGGgrrr" minDur="10" maxDur="88"/>
        <phase duration="3" state="yygrrryygrrr" minDur="3" maxDur="3"/>
        <phase duration="6" state="rrGrrrrrGrrr" minDur="6" maxDur="56"/>
        <phase duration="3" state="rryrrrrryrrr" minDur="3" maxDur="3"/>
        <phase duration="37" state="rrrGGgrrrGGg" minDur="10" maxDur="87"/>
        <phase duration="3" state="rrryyyrrryyy" minDur="3" maxDur="3"/>
    </tlLogic>