<?xml version="1.0" encoding="UTF-8"?>

<!-- generated on 11/04/19 08:21:50 by Eclipse SUMO netedit Version 1.3.1
<configuration xmlns:xsi="http://www.w3.org/2001/XMLSchema-instance" xsi:noNamespaceSchemaLocation="http://sumo.dlr.de/xsd/netconvertConfiguration.xsd">

    <input>
        <sumo-net-file value="C:\Owncloud\Projects\CAVIMAS\Simulations\CS3\current\scenario_0\M50network.net.xml"/>
    </input>

    <output>
        <output-file value="C:\Owncloud\Projects\CAVIMAS\Simulations\CS3\current\scenario_0\M50network.net.xml"/>
        <output.street-names value="true"/>
    </output>

    <processing>
        <geometry.max-grade.fix value="false"/>
        <offset.disable-normalization value="true"/>
        <opposites.guess.fix-lengths value="true"/>
        <lefthand value="true"/>
    </processing>

    <junctions>
        <no-turnarounds value="true"/>
        <junctions.corner-detail value="5"/>
        <junctions.limit-turn-speed value="5.5"/>
        <rectangular-lane-cut value="false"/>
    </junctions>

    <pedestrian>
        <walkingareas value="false"/>
    </pedestrian>

</configuration>
-->

<net version="1.3" junctionCornerDetail="5" lefthand="true" limitTurnSpeed="5.50" xmlns:xsi="http://www.w3.org/2001/XMLSchema-instance" xsi:noNamespaceSchemaLocation="http://sumo.dlr.de/xsd/net_file.xsd">

    <location netOffset="-671732.77,-5908594.20" convBoundary="679.56,966.00,4441.09,9242.02" origBoundary="-6.528760,53.297046,-6.306411,53.380037" projParameter="+proj=utm +zone=29 +ellps=WGS84 +datum=WGS84 +units=m +no_defs"/>

    <type id="highway.bridleway" priority="1" numLanes="1" speed="2.78" allow="pedestrian" oneway="1" width="2.00"/>
    <type id="highway.bus_guideway" priority="1" numLanes="1" speed="27.78" allow="bus" oneway="1"/>
    <type id="highway.cycleway" priority="1" numLanes="1" speed="8.33" allow="bicycle" oneway="0" width="1.00"/>
    <type id="highway.footway" priority="1" numLanes="1" speed="2.78" allow="pedestrian" oneway="1" width="2.00"/>
    <type id="highway.ford" priority="1" numLanes="1" speed="2.78" allow="army" oneway="0"/>
    <type id="highway.living_street" priority="2" numLanes="1" speed="2.78" disallow="tram rail_urban rail rail_electric ship" oneway="0"/>
    <type id="highway.motorway" priority="14" numLanes="2" speed="39.44" allow="private emergency authority army vip passenger hov taxi bus coach delivery truck trailer motorcycle evehicle custom1 custom2" oneway="1"/>
    <type id="highway.motorway_link" priority="9" numLanes="1" speed="22.22" allow="private emergency authority army vip passenger hov taxi bus coach delivery truck trailer motorcycle evehicle custom1 custom2" oneway="1"/>
    <type id="highway.path" priority="1" numLanes="1" speed="2.78" allow="pedestrian bicycle" oneway="1" width="2.00"/>
    <type id="highway.pedestrian" priority="1" numLanes="1" speed="2.78" allow="pedestrian" oneway="1" width="2.00"/>
    <type id="highway.primary" priority="12" numLanes="2" speed="27.78" disallow="tram rail_urban rail rail_electric ship" oneway="0"/>
    <type id="highway.primary_link" priority="7" numLanes="1" speed="22.22" disallow="tram rail_urban rail rail_electric ship" oneway="0"/>
    <type id="highway.raceway" priority="15" numLanes="2" speed="83.33" allow="vip" oneway="0"/>
    <type id="highway.residential" priority="3" numLanes="1" speed="13.89" disallow="tram rail_urban rail rail_electric ship" oneway="0"/>
    <type id="highway.secondary" priority="11" numLanes="2" speed="27.78" disallow="tram rail_urban rail rail_electric ship" oneway="0"/>
    <type id="highway.secondary_link" priority="6" numLanes="1" speed="22.22" disallow="tram rail_urban rail rail_electric ship" oneway="0"/>
    <type id="highway.service" priority="1" numLanes="1" speed="5.56" allow="pedestrian delivery bicycle" oneway="0"/>
    <type id="highway.stairs" priority="1" numLanes="1" speed="1.39" allow="pedestrian" oneway="1" width="2.00"/>
    <type id="highway.step" priority="1" numLanes="1" speed="1.39" allow="pedestrian" oneway="1" width="2.00"/>
    <type id="highway.steps" priority="1" numLanes="1" speed="1.39" allow="pedestrian" oneway="1" width="2.00"/>
    <type id="highway.tertiary" priority="10" numLanes="1" speed="22.22" disallow="tram rail_urban rail rail_electric ship" oneway="0"/>
    <type id="highway.tertiary_link" priority="5" numLanes="1" speed="22.22" disallow="tram rail_urban rail rail_electric ship" oneway="0"/>
    <type id="highway.track" priority="1" numLanes="1" speed="5.56" disallow="tram rail_urban rail rail_electric ship" oneway="0"/>
    <type id="highway.trunk" priority="13" numLanes="2" speed="27.78" disallow="pedestrian bicycle tram rail_urban rail rail_electric ship" oneway="0"/>
    <type id="highway.trunk_link" priority="8" numLanes="1" speed="22.22" disallow="pedestrian bicycle tram rail_urban rail rail_electric ship" oneway="0"/>
    <type id="highway.unclassified" priority="4" numLanes="1" speed="13.89" disallow="tram rail_urban rail rail_electric ship" oneway="0"/>
    <type id="highway.unsurfaced" priority="1" numLanes="1" speed="8.33" disallow="tram rail_urban rail rail_electric ship" oneway="0"/>
    <type id="railway.light_rail" priority="19" numLanes="1" speed="27.78" allow="rail_urban" oneway="1"/>
    <type id="railway.preserved" priority="16" numLanes="1" speed="27.78" allow="rail" oneway="1"/>
    <type id="railway.rail" priority="20" numLanes="1" speed="83.33" allow="rail rail_electric" oneway="1"/>
    <type id="railway.subway" priority="18" numLanes="1" speed="27.78" allow="rail_urban" oneway="1"/>
    <type id="railway.tram" priority="17" numLanes="1" speed="13.89" allow="tram" oneway="1"/>

    <edge id=":106130759-AddedOffRampNode_0" function="internal">
        <lane id=":106130759-AddedOffRampNode_0_0" index="0" allow="private emergency authority army vip passenger hov taxi bus coach delivery truck trailer motorcycle evehicle custom1 custom2" speed="27.78" length="8.32" shape="2415.42,6944.62 2415.56,6942.13 2416.43,6940.46 2417.31,6938.79 2417.46,6936.29"/>
        <lane id=":106130759-AddedOffRampNode_0_1" index="1" allow="private emergency authority army vip passenger hov taxi bus coach delivery truck trailer motorcycle evehicle custom1 custom2" speed="27.78" length="8.32" shape="2412.26,6945.09 2412.39,6942.59 2413.26,6940.91 2414.14,6939.24 2414.29,6936.73"/>
        <lane id=":106130759-AddedOffRampNode_0_2" index="2" allow="private emergency authority army vip passenger hov taxi bus coach delivery truck trailer motorcycle evehicle custom1 custom2" speed="27.78" length="8.32" shape="2412.26,6945.09 2411.12,6937.18"/>
        <lane id=":106130759-AddedOffRampNode_0_3" index="3" allow="private emergency authority army vip passenger hov taxi bus coach delivery truck trailer motorcycle evehicle custom1 custom2" speed="27.78" length="8.32" shape="2409.09,6945.56 2407.96,6937.62"/>
        <lane id=":106130759-AddedOffRampNode_0_4" index="4" allow="private emergency authority army vip passenger hov taxi bus coach delivery truck trailer motorcycle evehicle custom1 custom2" speed="27.78" length="8.32" shape="2405.93,6946.02 2404.79,6938.07"/>
    </edge>
    <edge id=":107635881_0" function="internal">
        <lane id=":107635881_0_0" index="0" allow="private emergency authority army vip passenger hov taxi bus coach delivery truck trailer motorcycle evehicle custom1 custom2" speed="22.23" length="0.29" shape="3364.25,2798.26 3364.48,2797.84"/>
        <lane id=":107635881_0_1" index="1" allow="private emergency authority army vip passenger hov taxi bus coach delivery truck trailer motorcycle evehicle custom1 custom2" speed="22.23" length="0.29" shape="3361.49,2796.64 3361.63,2796.39"/>
        <lane id=":107635881_0_2" index="2" allow="private emergency authority army vip passenger hov taxi bus coach delivery truck trailer motorcycle evehicle custom1 custom2" speed="22.23" length="0.29" shape="3358.73,2795.03 3358.77,2794.94"/>
    </edge>
    <edge id=":107635947_0" function="internal">
        <lane id=":107635947_0_0" index="0" disallow="pedestrian bicycle tram rail_urban rail rail_electric rail_fast ship" speed="19.45" length="0.59" shape="3046.02,2081.58 3045.66,2081.43"/>
        <lane id=":107635947_0_1" index="1" disallow="pedestrian bicycle tram rail_urban rail rail_electric rail_fast ship" speed="19.45" length="0.59" shape="3044.83,2084.55 3044.35,2084.35"/>
        <lane id=":107635947_0_2" index="2" disallow="pedestrian bicycle tram rail_urban rail rail_electric rail_fast ship" speed="19.45" length="0.59" shape="3043.64,2087.53 3043.03,2087.27"/>
        <lane id=":107635947_0_3" index="3" disallow="pedestrian bicycle tram rail_urban rail rail_electric rail_fast ship" speed="19.45" length="0.59" shape="3042.45,2090.50 3041.72,2090.19"/>
    </edge>
    <edge id=":107636108_0" function="internal">
        <lane id=":107636108_0_0" index="0" allow="private emergency authority army vip passenger hov taxi bus coach delivery truck trailer motorcycle evehicle custom1 custom2" speed="18.06" length="0.28" shape="2323.21,6502.05 2323.25,6502.33"/>
    </edge>
    <edge id=":107673225_0" function="internal">
        <lane id=":107673225_0_0" index="0" allow="private emergency authority army vip passenger hov taxi bus coach delivery truck trailer motorcycle evehicle custom1 custom2" speed="16.67" length="18.62" shape="2442.76,6483.84 2427.35,6473.38"/>
    </edge>
    <edge id=":107673225_1" function="internal">
        <lane id=":107673225_1_0" index="0" allow="private emergency authority army vip passenger hov taxi bus coach delivery truck trailer motorcycle evehicle custom1 custom2" speed="16.67" length="18.63" shape="2442.76,6483.84 2438.90,6481.91 2434.31,6479.94 2429.67,6478.07 2425.67,6476.44"/>
    </edge>
    <edge id=":107673230_0" function="internal">
        <lane id=":107673230_0_0" index="0" allow="private emergency authority army vip passenger hov taxi bus coach delivery truck trailer motorcycle evehicle custom1 custom2" speed="12.50" length="0.10" shape="2295.14,6452.03 2295.14,6452.03"/>
    </edge>
    <edge id=":107673236_0" function="internal">
        <lane id=":107673236_0_0" index="0" allow="private emergency authority army vip passenger hov taxi bus coach delivery truck trailer motorcycle evehicle custom1 custom2" speed="22.23" length="26.56" shape="2353.48,6735.93 2354.82,6740.08 2355.93,6745.76 2357.01,6753.03 2358.23,6762.00"/>
    </edge>
    <edge id=":107673236_1" function="internal">
        <lane id=":107673236_1_0" index="0" allow="private emergency authority army vip passenger hov taxi bus coach delivery truck trailer motorcycle evehicle custom1 custom2" speed="27.78" length="24.79" shape="2358.60,6736.86 2361.40,6761.57"/>
        <lane id=":107673236_1_1" index="1" allow="private emergency authority army vip passenger hov taxi bus coach delivery truck trailer motorcycle evehicle custom1 custom2" speed="27.78" length="24.79" shape="2361.78,6736.50 2364.58,6761.13"/>
        <lane id=":107673236_1_2" index="2" allow="private emergency authority army vip passenger hov taxi bus coach delivery truck trailer motorcycle evehicle custom1 custom2" speed="27.78" length="24.79" shape="2364.96,6736.14 2367.75,6760.70"/>
    </edge>
    <edge id=":108343718_0" function="internal">
        <lane id=":108343718_0_0" index="0" allow="private emergency authority army vip passenger hov taxi bus coach delivery truck trailer motorcycle evehicle custom1 custom2" speed="22.22" length="11.32" shape="3457.75,2361.83 3460.43,2363.89 3462.50,2364.96 3464.69,2365.86 3467.76,2367.36"/>
        <lane id=":108343718_0_1" index="1" allow="private emergency authority army vip passenger hov taxi bus coach delivery truck trailer motorcycle evehicle custom1 custom2" speed="22.22" length="11.32" shape="3459.60,2359.20 3462.20,2361.19 3464.20,2362.24 3466.33,2363.10 3469.30,2364.56"/>
    </edge>
    <edge id=":108343826_0" function="internal">
        <lane id=":108343826_0_0" index="0" allow="private emergency authority army vip passenger hov taxi bus coach delivery truck trailer motorcycle evehicle custom1 custom2" speed="15.27" length="0.15" shape="3501.88,2386.84 3501.91,2386.86"/>
        <lane id=":108343826_0_1" index="1" allow="private emergency authority army vip passenger hov taxi bus coach delivery truck trailer motorcycle evehicle custom1 custom2" speed="15.27" length="0.15" shape="3503.54,2384.11 3503.71,2384.22"/>
    </edge>
    <edge id=":108344325_0" function="internal">
        <lane id=":108344325_0_0" index="0" allow="private emergency authority army vip passenger hov taxi bus coach delivery truck trailer motorcycle evehicle custom1 custom2" speed="27.78" length="25.05" shape="3590.11,2337.58 3591.33,2331.35 3592.75,2326.45 3594.91,2321.37 3598.34,2314.61"/>
        <lane id=":108344325_0_1" index="1" allow="private emergency authority army vip passenger hov taxi bus coach delivery truck trailer motorcycle evehicle custom1 custom2" speed="27.78" length="25.05" shape="3586.96,2337.03 3588.20,2330.72 3589.67,2325.59 3591.93,2320.21 3595.51,2313.12"/>
    </edge>
    <edge id=":108344325_2" function="internal">
        <lane id=":108344325_2_0" index="0" allow="private emergency authority army vip passenger hov taxi bus coach delivery truck trailer motorcycle evehicle custom1 custom2" speed="20.84" length="25.99" shape="3582.83,2335.64 3592.68,2311.63"/>
        <lane id=":108344325_2_1" index="1" allow="private emergency authority army vip passenger hov taxi bus coach delivery truck trailer motorcycle evehicle custom1 custom2" speed="20.84" length="25.99" shape="3579.98,2334.19 3589.85,2310.14"/>
        <lane id=":108344325_2_2" index="2" allow="private emergency authority army vip passenger hov taxi bus coach delivery truck trailer motorcycle evehicle custom1 custom2" speed="20.84" length="25.99" shape="3577.13,2332.73 3587.02,2308.65"/>
    </edge>
    <edge id=":11994462-AddedOnRampNode_0" function="internal">
        <lane id=":11994462-AddedOnRampNode_0_0" index="0" allow="private emergency authority army vip passenger hov taxi bus coach delivery truck trailer motorcycle evehicle custom1 custom2" speed="8.33" length="1.62" shape="3550.50,2421.84 3551.77,2420.83"/>
        <lane id=":11994462-AddedOnRampNode_0_1" index="1" allow="private emergency authority army vip passenger hov taxi bus coach delivery truck trailer motorcycle evehicle custom1 custom2" speed="8.33" length="1.62" shape="3552.60,2419.43 3553.88,2418.42"/>
    </edge>
    <edge id=":12120250_0" function="internal">
        <lane id=":12120250_0_0" index="0" disallow="pedestrian bicycle tram rail_urban rail rail_electric rail_fast ship" speed="16.67" length="0.64" shape="3492.42,2362.49 3492.64,2362.67 3492.80,2362.78 3492.97,2362.88 3493.23,2363.01"/>
        <lane id=":12120250_0_1" index="1" disallow="pedestrian bicycle tram rail_urban rail rail_electric rail_fast ship" speed="16.67" length="0.64" shape="3494.42,2359.99 3494.49,2360.05 3494.54,2360.09 3494.60,2360.12 3494.69,2360.16"/>
    </edge>
    <edge id=":12528267_0" function="internal">
        <lane id=":12528267_0_0" index="0" disallow="pedestrian bicycle tram rail_urban rail rail_electric rail_fast ship" speed="22.22" length="8.31" shape="1950.53,6452.44 1948.14,6451.98 1946.44,6452.08 1944.72,6452.22 1942.29,6451.94"/>
    </edge>
    <edge id=":12528267_1" function="internal">
        <lane id=":12528267_1_0" index="0" disallow="pedestrian bicycle tram rail_urban rail rail_electric rail_fast ship" speed="22.22" length="7.53" shape="1949.13,6457.03 1941.60,6455.06"/>
        <lane id=":12528267_1_1" index="1" disallow="pedestrian bicycle tram rail_urban rail rail_electric rail_fast ship" speed="22.22" length="7.53" shape="1948.19,6460.09 1940.91,6458.19"/>
        <lane id=":12528267_1_2" index="2" disallow="pedestrian bicycle tram rail_urban rail rail_electric rail_fast ship" speed="22.22" length="7.53" shape="1947.26,6463.15 1940.22,6461.31"/>
    </edge>
    <edge id=":12532024_0" function="internal">
        <lane id=":12532024_0_0" index="0" allow="private emergency authority army vip passenger hov taxi bus coach delivery truck trailer motorcycle evehicle custom1 custom2" speed="22.23" length="7.55" shape="3214.56,2919.97 3210.34,2926.23"/>
    </edge>
    <edge id=":12532024_1" function="internal">
        <lane id=":12532024_1_0" index="0" allow="private emergency authority army vip passenger hov taxi bus coach delivery truck trailer motorcycle evehicle custom1 custom2" speed="27.78" length="7.94" shape="3217.28,2921.73 3212.94,2928.10"/>
        <lane id=":12532024_1_1" index="1" allow="private emergency authority army vip passenger hov taxi bus coach delivery truck trailer motorcycle evehicle custom1 custom2" speed="27.78" length="7.94" shape="3219.97,2923.47 3215.54,2929.96"/>
        <lane id=":12532024_1_2" index="2" allow="private emergency authority army vip passenger hov taxi bus coach delivery truck trailer motorcycle evehicle custom1 custom2" speed="27.78" length="7.94" shape="3222.65,2925.21 3218.14,2931.83"/>
        <lane id=":12532024_1_3" index="3" allow="private emergency authority army vip passenger hov taxi bus coach delivery truck trailer motorcycle evehicle custom1 custom2" speed="27.78" length="7.94" shape="3225.34,2926.94 3220.74,2933.70"/>
    </edge>
    <edge id=":12690179_0" function="internal">
        <lane id=":12690179_0_0" index="0" allow="private emergency authority army vip passenger hov taxi bus coach delivery truck trailer motorcycle evehicle custom1 custom2" speed="27.78" length="8.65" shape="2320.56,6111.56 2319.76,6103.56"/>
        <lane id=":12690179_0_1" index="1" allow="private emergency authority army vip passenger hov taxi bus coach delivery truck trailer motorcycle evehicle custom1 custom2" speed="27.78" length="8.65" shape="2317.38,6111.87 2317.64,6109.36 2318.58,6107.71 2319.52,6106.06 2319.76,6103.56"/>
        <lane id=":12690179_0_2" index="2" allow="private emergency authority army vip passenger hov taxi bus coach delivery truck trailer motorcycle evehicle custom1 custom2" speed="27.78" length="8.65" shape="2314.19,6112.17 2314.45,6109.67 2315.40,6108.03 2316.34,6106.39 2316.58,6103.89"/>
        <lane id=":12690179_0_3" index="3" allow="private emergency authority army vip passenger hov taxi bus coach delivery truck trailer motorcycle evehicle custom1 custom2" speed="27.78" length="8.65" shape="2311.01,6112.48 2311.27,6109.98 2312.21,6108.35 2313.15,6106.71 2313.40,6104.22"/>
        <lane id=":12690179_0_4" index="4" allow="private emergency authority army vip passenger hov taxi bus coach delivery truck trailer motorcycle evehicle custom1 custom2" speed="27.78" length="8.65" shape="2307.82,6112.78 2308.08,6110.30 2309.03,6108.67 2309.97,6107.04 2310.21,6104.55"/>
    </edge>
    <edge id=":15853040_0" function="internal">
        <lane id=":15853040_0_0" index="0" disallow="tram rail_urban rail rail_electric rail_fast ship" speed="16.67" length="8.17" shape="3832.96,2477.93 3835.12,2479.06 3836.77,2479.48 3838.44,2479.88 3840.63,2480.94"/>
        <lane id=":15853040_0_1" index="1" disallow="tram rail_urban rail rail_electric rail_fast ship" speed="16.67" length="8.17" shape="3834.73,2475.26 3836.60,2476.80 3837.65,2478.15 3838.72,2479.47 3840.63,2480.94"/>
        <lane id=":15853040_0_2" index="2" disallow="tram rail_urban rail rail_electric rail_fast ship" speed="16.67" length="8.17" shape="3836.51,2472.60 3838.35,2474.12 3839.38,2475.45 3840.43,2476.76 3842.31,2478.22"/>
        <lane id=":15853040_0_3" index="3" disallow="tram rail_urban rail rail_electric rail_fast ship" speed="16.67" length="8.17" shape="3838.28,2469.93 3840.09,2471.44 3841.11,2472.76 3842.13,2474.05 3843.99,2475.50"/>
    </edge>
    <edge id=":169300201_0" function="internal">
        <lane id=":169300201_0_0" index="0" disallow="pedestrian bicycle tram rail_urban rail rail_electric rail_fast ship" speed="16.67" length="0.25" shape="2462.41,6608.16 2462.71,6608.12"/>
        <lane id=":169300201_0_1" index="1" disallow="pedestrian bicycle tram rail_urban rail rail_electric rail_fast ship" speed="16.67" length="0.25" shape="2461.96,6604.99 2462.17,6604.96"/>
    </edge>
    <edge id=":169300207_0" function="internal">
        <lane id=":169300207_0_0" index="0" allow="private emergency authority army vip passenger hov taxi bus coach delivery truck trailer motorcycle evehicle custom1 custom2" speed="16.67" length="21.23" shape="2393.81,6696.56 2395.29,6689.87 2396.54,6684.33 2397.82,6679.80 2399.37,6676.12"/>
    </edge>
    <edge id=":169300207_1" function="internal">
        <lane id=":169300207_1_0" index="0" allow="private emergency authority army vip passenger hov taxi bus coach delivery truck trailer motorcycle evehicle custom1 custom2" speed="16.67" length="12.19" shape="2390.69,6695.85 2391.45,6692.16 2391.84,6689.46 2392.06,6686.93 2392.31,6683.78"/>
    </edge>
    <edge id=":181454548_0" function="internal">
        <lane id=":181454548_0_0" index="0" allow="private emergency authority army vip passenger hov taxi bus coach delivery truck trailer motorcycle evehicle custom1 custom2" speed="18.06" length="8.01" shape="2357.18,6449.03 2356.31,6441.07"/>
        <lane id=":181454548_0_1" index="1" allow="private emergency authority army vip passenger hov taxi bus coach delivery truck trailer motorcycle evehicle custom1 custom2" speed="18.06" length="8.01" shape="2354.00,6449.36 2353.13,6441.40"/>
    </edge>
    <edge id=":181454548_2" function="internal">
        <lane id=":181454548_2_0" index="0" allow="private emergency authority army vip passenger hov taxi bus coach delivery truck trailer motorcycle evehicle custom1 custom2" speed="27.78" length="7.99" shape="2350.76,6449.69 2349.94,6441.73"/>
        <lane id=":181454548_2_1" index="1" allow="private emergency authority army vip passenger hov taxi bus coach delivery truck trailer motorcycle evehicle custom1 custom2" speed="27.78" length="7.99" shape="2347.58,6450.02 2346.76,6442.07"/>
        <lane id=":181454548_2_2" index="2" allow="private emergency authority army vip passenger hov taxi bus coach delivery truck trailer motorcycle evehicle custom1 custom2" speed="27.78" length="7.99" shape="2344.40,6450.35 2343.58,6442.40"/>
    </edge>
    <edge id=":181454567_0" function="internal">
        <lane id=":181454567_0_0" index="0" allow="private emergency authority army vip passenger hov taxi bus coach delivery truck trailer motorcycle evehicle custom1 custom2" speed="16.67" length="0.27" shape="2302.30,6482.20 2302.52,6482.18"/>
        <lane id=":181454567_0_1" index="1" allow="private emergency authority army vip passenger hov taxi bus coach delivery truck trailer motorcycle evehicle custom1 custom2" speed="16.67" length="0.27" shape="2301.94,6479.03 2302.24,6478.99"/>
    </edge>
    <edge id=":193034705_0" function="internal">
        <lane id=":193034705_0_0" index="0" allow="private emergency authority army vip passenger hov taxi bus coach delivery truck trailer motorcycle evehicle custom1 custom2" speed="15.28" length="0.35" shape="2183.95,6454.54 2183.90,6454.63 2183.87,6454.69 2183.85,6454.76 2183.82,6454.86"/>
    </edge>
    <edge id=":193034707_0" function="internal">
        <lane id=":193034707_0_0" index="0" allow="private emergency authority army vip passenger hov taxi bus coach delivery truck trailer motorcycle evehicle custom1 custom2" speed="15.28" length="0.30" shape="2184.92,6525.35 2184.94,6525.43 2184.96,6525.49 2184.99,6525.54 2185.03,6525.62"/>
    </edge>
    <edge id=":21568042_0" function="internal">
        <lane id=":21568042_0_0" index="0" allow="private emergency authority army vip passenger hov taxi bus coach delivery truck trailer motorcycle evehicle custom1 custom2" speed="16.67" length="16.55" shape="2742.97,6524.75 2737.90,6526.39 2733.84,6527.11 2730.31,6527.47 2726.81,6528.03"/>
    </edge>
    <edge id=":21568042_1" function="internal">
        <lane id=":21568042_1_0" index="0" disallow="pedestrian bicycle tram rail_urban rail rail_electric rail_fast ship" speed="16.67" length="16.95" shape="2744.15,6527.73 2739.40,6529.28 2736.00,6529.89 2732.59,6530.47 2727.80,6531.94"/>
        <lane id=":21568042_1_1" index="1" disallow="pedestrian bicycle tram rail_urban rail rail_electric rail_fast ship" speed="16.67" length="16.95" shape="2745.33,6530.70 2740.56,6532.26 2737.15,6532.88 2733.73,6533.46 2728.92,6534.94"/>
    </edge>
    <edge id=":2187111852_0" function="internal">
        <lane id=":2187111852_0_0" index="0" allow="private emergency authority army vip passenger hov taxi bus coach delivery truck trailer motorcycle evehicle custom1 custom2" speed="22.22" length="7.64" shape="3319.93,2232.25 3326.77,2235.44"/>
        <lane id=":2187111852_0_1" index="1" allow="private emergency authority army vip passenger hov taxi bus coach delivery truck trailer motorcycle evehicle custom1 custom2" speed="22.22" length="7.64" shape="3321.20,2229.31 3328.21,2232.58"/>
    </edge>
    <edge id=":2187111852_2" function="internal">
        <lane id=":2187111852_2_0" index="0" allow="private emergency authority army vip passenger hov taxi bus coach delivery truck trailer motorcycle evehicle custom1 custom2" speed="22.22" length="8.04" shape="3322.47,2226.37 3329.83,2229.35"/>
        <lane id=":2187111852_2_1" index="1" allow="private emergency authority army vip passenger hov taxi bus coach delivery truck trailer motorcycle evehicle custom1 custom2" speed="22.22" length="8.04" shape="3323.74,2223.44 3331.27,2226.49"/>
    </edge>
    <edge id=":247119678_0" function="internal">
        <lane id=":247119678_0_0" index="0" allow="private emergency authority army vip passenger hov taxi bus coach delivery truck trailer motorcycle evehicle custom1 custom2" speed="19.45" length="8.40" shape="3257.82,2201.93 3259.87,2203.38 3260.85,2205.00 3261.82,2206.63 3263.89,2208.06"/>
        <lane id=":247119678_0_1" index="1" allow="private emergency authority army vip passenger hov taxi bus coach delivery truck trailer motorcycle evehicle custom1 custom2" speed="19.45" length="8.40" shape="3257.82,2201.93 3265.16,2205.12"/>
        <lane id=":247119678_0_2" index="2" allow="private emergency authority army vip passenger hov taxi bus coach delivery truck trailer motorcycle evehicle custom1 custom2" speed="19.45" length="8.40" shape="3259.10,2199.00 3266.43,2202.19"/>
        <lane id=":247119678_0_3" index="3" allow="private emergency authority army vip passenger hov taxi bus coach delivery truck trailer motorcycle evehicle custom1 custom2" speed="19.45" length="8.40" shape="3259.10,2199.00 3261.55,2199.53 3263.39,2199.13 3265.24,2198.73 3267.69,2199.25"/>
    </edge>
    <edge id=":247119713_0" function="internal">
        <lane id=":247119713_0_0" index="0" allow="private emergency authority army vip passenger hov taxi bus coach delivery truck trailer motorcycle evehicle custom1 custom2" speed="19.45" length="8.19" shape="3429.48,2483.57 3428.93,2485.91 3428.93,2487.60 3428.90,2489.28 3428.32,2491.61"/>
        <lane id=":247119713_0_1" index="1" allow="private emergency authority army vip passenger hov taxi bus coach delivery truck trailer motorcycle evehicle custom1 custom2" speed="19.45" length="8.19" shape="3432.50,2484.61 3431.49,2486.79 3430.44,2488.12 3429.38,2489.44 3428.32,2491.61"/>
    </edge>
    <edge id=":248100702_0" function="internal">
        <lane id=":248100702_0_0" index="0" allow="private emergency authority army vip passenger hov taxi bus coach delivery truck trailer motorcycle evehicle custom1 custom2" speed="18.06" length="0.80" shape="3525.04,2494.09 3524.97,2493.99 3524.93,2493.92 3524.90,2493.85 3524.86,2493.74"/>
        <lane id=":248100702_0_1" index="1" allow="private emergency authority army vip passenger hov taxi bus coach delivery truck trailer motorcycle evehicle custom1 custom2" speed="18.06" length="0.80" shape="3522.39,2495.89 3522.19,2495.60 3522.07,2495.39 3521.97,2495.16 3521.85,2494.83"/>
    </edge>
    <edge id=":249202646_0" function="internal">
        <lane id=":249202646_0_0" index="0" allow="private emergency authority army vip passenger hov taxi bus coach delivery truck trailer motorcycle evehicle custom1 custom2" speed="12.50" length="0.60" shape="2389.90,6491.67 2389.98,6491.70 2390.04,6491.72 2390.09,6491.75 2390.17,6491.80"/>
        <lane id=":249202646_0_1" index="1" allow="private emergency authority army vip passenger hov taxi bus coach delivery truck trailer motorcycle evehicle custom1 custom2" speed="12.50" length="0.60" shape="2390.95,6488.65 2391.21,6488.74 2391.38,6488.81 2391.54,6488.89 2391.77,6489.03"/>
    </edge>
    <edge id=":254725105_0" function="internal">
        <lane id=":254725105_0_0" index="0" allow="private emergency authority army vip passenger hov taxi bus coach delivery truck trailer motorcycle evehicle custom1 custom2" speed="16.67" length="13.27" shape="3505.72,2572.94 3509.11,2570.60 3511.86,2569.28 3514.54,2568.42 3517.68,2567.47"/>
    </edge>
    <edge id=":254725105_1" function="internal">
        <lane id=":254725105_1_0" index="0" allow="private emergency authority army vip passenger hov taxi bus coach delivery truck trailer motorcycle evehicle custom1 custom2" speed="16.67" length="13.71" shape="3503.75,2570.42 3507.08,2568.12 3509.59,2566.89 3512.19,2565.81 3515.80,2563.91"/>
        <lane id=":254725105_1_1" index="1" allow="private emergency authority army vip passenger hov taxi bus coach delivery truck trailer motorcycle evehicle custom1 custom2" speed="16.67" length="13.71" shape="3501.78,2567.90 3505.09,2565.60 3507.58,2564.38 3510.17,2563.29 3513.76,2561.40"/>
    </edge>
    <edge id=":261187938-AddedOffRampNode_0" function="internal">
        <lane id=":261187938-AddedOffRampNode_0_0" index="0" disallow="pedestrian bicycle tram rail_urban rail rail_electric rail_fast ship" speed="22.22" length="1.63" shape="2938.36,2059.44 2938.03,2061.04"/>